geometry optimzed in LAMMPS
_audit_creation_date              2020-12-01 
_audit_creation_method            'lammps2cif' 
_symmetry_space_group_name_H-M    'P1' 
_symmetry_Int_Tables_number       1 
_symmetry_cell_setting            triclinic 
loop_ 
_symmetry_equiv_pos_as_xyz 
  x,y,z 
_cell_length_a                    37.50193442 
_cell_length_b                    37.505379775835046 
_cell_length_c                    35.012645687198074 
_cell_angle_alpha                 89.98759223232751 
_cell_angle_beta                  89.99678848775623 
_cell_angle_gamma                 120.15493770175406 
loop_ 
_atom_site_label 
_atom_site_type_symbol 
_atom_site_fract_x 
_atom_site_fract_y 
_atom_site_fract_z 
_atom_site_charge 
C1          C  0.02065370  0.47917227  0.74990949     0.80200
N2          N  0.47863842  0.45831121  0.74996758    -0.78100
C3          C  0.45749783  0.47908061  0.74998893     0.82600
N4          N  0.47874596  0.02107474  0.74992390    -0.78100
C5          C  0.02074378  0.04232734  0.74987070     0.82700
N6          N  0.04151780  0.02119028  0.74986984    -0.79800
O7          O  0.02443713  0.41733020  0.74986676    -0.71800
O8          O  0.08318690  0.35856429  0.74987944    -0.72100
O9          O  0.05385932  0.38774164  0.80405580    -0.71900
O10         O  0.05397780  0.38784704  0.69568556    -0.71900
O11         O  0.11208246  0.44593372  0.69574295    -0.71900
O12         O  0.11195759  0.44583505  0.80411063    -0.71900
O13         O  0.14123971  0.41660598  0.74994064    -0.71800
O14         O  0.08249372  0.47537449  0.74991427    -0.72000
V15         V  0.05492809  0.38908292  0.74987277     1.35200
V16         V  0.11073071  0.44487403  0.74992548     1.35200
C17         C  0.04344611  0.45637478  0.74989453     0.77400
C18         C  0.12224068  0.37755570  0.74991042     0.77500
C19         C  0.08342945  0.41622912  0.82246120     0.77300
C20         C  0.08359895  0.41636169  0.67733666     0.77300
C21         C  0.14504611  0.35474975  0.74990726     0.80200
N22         N  0.18706568  0.37560763  0.74991572    -0.78100
C23         C  0.20820464  0.35483110  0.74991250     0.82600
N24         N  0.18695948  0.31284629  0.74989839    -0.78100
C25         C  0.14497062  0.29159995  0.74988686     0.82700
N26         N  0.12418832  0.31273374  0.74989265    -0.79800
O27         O  0.08260826  0.10824424  0.74983976    -0.71800
O28         O  0.14122019  0.22600001  0.74988177    -0.72100
O29         O  0.11204624  0.16737175  0.80404478    -0.71900
O30         O  0.11217944  0.16746202  0.69566727    -0.71900
O31         O  0.05407749  0.16717379  0.69556309    -0.71900
O32         O  0.05394919  0.16709458  0.80404906    -0.71900
O33         O  0.08314468  0.22568456  0.74982921    -0.71800
O34         O  0.02454289  0.10794846  0.74979862    -0.72000
V35         V  0.11079672  0.16711462  0.74985612     1.35200
V36         V  0.05498016  0.16681633  0.74980886     1.35200
C37         C  0.04356307  0.08801204  0.74983053     0.77400
C38         C  0.12218411  0.24592653  0.74986566     0.77500
C39         C  0.08355866  0.16834236  0.82244021     0.77300
C40         C  0.08374268  0.16847388  0.67722157     0.77300
O41         O  0.39158209  0.41721756  0.75004650    -0.71800
O42         O  0.27381647  0.35859278  0.74996426    -0.72100
O43         O  0.33247116  0.38773815  0.69582037    -0.71900
O44         O  0.33234291  0.38768082  0.80420245    -0.71900
O45         O  0.33260873  0.44576597  0.80424385    -0.71900
O46         O  0.33274877  0.44582991  0.69575649    -0.71900
O47         O  0.27412083  0.41665737  0.74994590    -0.71800
O48         O  0.39186732  0.47527246  0.75003684    -0.72000
V49         V  0.33270732  0.38902345  0.75001048     1.35200
V50         V  0.33299489  0.44482941  0.74999769     1.35200
C51         C  0.41181030  0.45625909  0.75003271     0.77400
C52         C  0.25388245  0.37762124  0.74993938     0.77500
C53         C  0.33151593  0.41621697  0.67739375     0.77300
C54         C  0.33131285  0.41612074  0.82261749     0.77300
C55         C  0.32626155  0.41349043  0.63580612     0.80200
N56         N  0.32020868  0.44174944  0.61696222    -0.78100
C57         C  0.30999814  0.43643804  0.57933951     0.82600
N58         N  0.30511620  0.40257981  0.56095423    -0.78100
C59         C  0.31071709  0.37412141  0.57946997     0.82700
N60         N  0.32078606  0.37928687  0.61711526    -0.79800
C61         C  0.08641009  0.41365262  0.63582077     0.80200
N62         N  0.05797719  0.37922647  0.61709692    -0.78100
C63         C  0.06367368  0.37371337  0.57973766     0.82600
N64         N  0.09809942  0.40217218  0.56153127    -0.78100
C65         C  0.12649022  0.43654431  0.57982282     0.82700
N66         N  0.12091488  0.44210414  0.61719458    -0.79800
C67         C  0.08611873  0.41344766  0.86398169     0.80200
N68         N  0.12053497  0.44189665  0.88270866    -0.78100
C69         C  0.12602759  0.43623625  0.92008404     0.82600
N70         N  0.09756264  0.40182528  0.93830283    -0.78100
C71         C  0.06320596  0.37341312  0.92000300     0.82700
N72         N  0.05766396  0.37895542  0.88261717    -0.79800
C73         C  0.32586963  0.41328397  0.86419398     0.80200
N74         N  0.31975794  0.44150473  0.88303678    -0.78100
C75         C  0.30929244  0.43603299  0.92060877     0.82600
N76         N  0.30431694  0.40210984  0.93895535    -0.78100
C77         C  0.31003099  0.37372503  0.92045622     0.82700
N78         N  0.32028595  0.37901181  0.88285089    -0.79800
C79         C  0.08660365  0.17390895  0.63564692     0.80200
N80         N  0.12089378  0.17950636  0.61701238    -0.78100
C81         C  0.12619627  0.18976671  0.57940716     0.82600
N82         N  0.09781668  0.19548453  0.56089167    -0.78100
C83         C  0.06387913  0.19049848  0.57922017     0.82700
N84         N  0.05838357  0.18001069  0.61678480    -0.79800
C85         C  0.08627845  0.17362931  0.86402269     0.80200
N86         N  0.12049074  0.17913053  0.88272527    -0.78100
C87         C  0.12565194  0.18921518  0.92036432     0.82600
N88         N  0.09717703  0.19479902  0.93886553    -0.78100
C89         C  0.06330938  0.18989212  0.92046915     0.82700
N90         N  0.05800599  0.17967681  0.88284767    -0.79800
N91         N  0.23682339  0.26250455  0.94513600    -0.36700
N92         N  0.19420309  0.19460071  0.99978483    -0.57200
N93         N  0.26202729  0.23721278  0.05448401    -0.36700
N94         N  0.30465998  0.30510438  0.99983002    -0.57200
C95         C  0.19898119  0.24199113  0.92867379     0.26900
C96         C  0.25732331  0.30036617  0.92869932     0.26900
C97         C  0.24154941  0.19932593  0.07087431     0.26900
C98         C  0.29990102  0.25768462  0.07089109     0.26900
C99         C  0.16474205  0.18084506  0.97255183     0.35500
C100        C  0.18039618  0.16514765  0.02703786     0.35500
C101        C  0.31841388  0.33460449  0.97262259     0.35500
C102        C  0.33409004  0.31889001  0.02709591     0.35500
C103        C  0.19636180  0.26644706  0.90029894    -0.22000
C104        C  0.23288551  0.30298810  0.90031278    -0.22000
C105        C  0.26605171  0.19663280  0.09915157    -0.22000
C106        C  0.30257975  0.23316908  0.09916398    -0.22000
C107        C  0.13204226  0.14250990  0.98260079    -0.23000
C108        C  0.14203459  0.13249019  0.01701027    -0.23000
C109        C  0.35672440  0.36731385  0.98270475    -0.23000
C110        C  0.36673521  0.35727864  0.01710091    -0.23000
C111        C  0.16550454  0.20297943  0.93964218    -0.18400
C112        C  0.29630165  0.33385693  0.93970170    -0.18400
C113        C  0.33333819  0.29674281  0.05999456    -0.18400
C114        C  0.20249870  0.16589421  0.05995930    -0.18400
H115        H  0.17024102  0.25964869  0.88231439     0.17300
H116        H  0.23968586  0.32912136  0.88233873     0.14500
H117        H  0.25928080  0.17046191  0.11705926     0.14500
H118        H  0.32873883  0.23994589  0.11708672     0.14500
H119        H  0.10387717  0.12370593  0.96677117     0.12800
H120        H  0.12318956  0.10434215  0.03285945     0.12800
H121        H  0.37552073  0.39550891  0.96690241     0.12800
H122        H  0.39486753  0.37611318  0.03296448     0.12800
H123        H  0.24768765  0.25163476  0.96676406     0.26100
H124        H  0.25110502  0.24814620  0.03295707     0.26100
N125        N  0.49659003  0.30336538  0.99839232    -0.36700
N126        N  0.02693046  0.26360298  0.94574099    -0.57200
N127        N  0.50259749  0.19669477  0.00136007    -0.36700
N128        N  0.47203825  0.23636198  0.05384554    -0.57200
C129        C  0.01627584  0.33435887  0.97289838     0.26900
C130        C  0.48288639  0.31764130  0.02698862     0.26900
C131        C  0.01556902  0.18215731  0.97237972     0.26900
C132        C  0.48210105  0.16539929  0.02641416     0.26900
C133        C  0.04157977  0.29995102  0.92720079     0.35500
C134        C  0.04294288  0.24277651  0.92796938     0.35500
C135        C  0.45666010  0.25753960  0.07204035     0.35500
C136        C  0.45795922  0.20029742  0.07275142     0.35500
C137        C  0.01417211  0.36848448  0.98518425    -0.22000
C138        C  0.49292517  0.35784177  0.01910934    -0.22000
C139        C  0.00432379  0.14151197  0.97956665    -0.22000
C140        C  0.48302743  0.13084204  0.01345918    -0.22000
C141        C  0.06619497  0.30160223  0.89682850    -0.23000
C142        C  0.06714640  0.26565554  0.89739854    -0.23000
C143        C  0.43338790  0.23512592  0.10322745    -0.23000
C144        C  0.43429294  0.19914813  0.10375328    -0.23000
C145        C  0.03699490  0.33356669  0.93926768    -0.18400
C146        C  0.46099091  0.29557264  0.05986209    -0.18400
C147        C  0.46191682  0.16639718  0.06036026    -0.18400
C148        C  0.03804420  0.20445411  0.93985777    -0.18400
H149        H  0.02667037  0.39812316  0.97119763     0.14500
H150        H  0.48620095  0.37770364  0.03635642     0.14500
H151        H  0.01033384  0.12141997  0.96190032     0.14500
H152        H  0.46977317  0.10090535  0.02699568     0.14500
H153        H  0.08343924  0.32676344  0.87716218     0.12800
H154        H  0.08497227  0.25817200  0.87812514     0.12800
H155        H  0.41613296  0.24287855  0.12295102     0.12800
H156        H  0.41756970  0.17428972  0.12383208     0.12800
H157        H  0.49205963  0.27397613  0.99619231     0.26100
H158        H  0.50834247  0.22649755  0.00415730     0.26100
N159        N  0.23742913  0.26295054  0.55472893    -0.36700
N160        N  0.30531495  0.30556249  0.50006514    -0.57200
N161        N  0.26267331  0.23774470  0.44536904    -0.36700
N162        N  0.19480228  0.19511757  0.50004001    -0.57200
C163        C  0.25794406  0.30079495  0.57117829     0.26900
C164        C  0.19956459  0.24245859  0.57116468     0.26900
C165        C  0.30055448  0.25822396  0.42896479     0.26900
C166        C  0.24218746  0.19987908  0.42895720     0.26900
C167        C  0.31908317  0.33502451  0.52729300     0.35500
C168        C  0.33475724  0.31936720  0.47280230     0.35500
C169        C  0.16531520  0.18136342  0.52725985     0.35500
C170        C  0.18100230  0.16568830  0.47277776     0.35500
C171        C  0.23348615  0.30342242  0.59954379    -0.22000
C172        C  0.19694304  0.26690234  0.59953751    -0.22000
C173        C  0.30323133  0.23373061  0.40067519    -0.22000
C174        C  0.26668987  0.19720603  0.40066871    -0.22000
C175        C  0.35741578  0.36772180  0.51723175    -0.23000
C176        C  0.36742097  0.35772744  0.48281973    -0.23000
C177        C  0.13260129  0.14305272  0.51719066    -0.23000
C178        C  0.14261845  0.13304299  0.48278874    -0.23000
C179        C  0.29695719  0.33426769  0.56020494    -0.18400
C180        C  0.16606918  0.20348192  0.56017271    -0.18400
C181        C  0.20312874  0.16644515  0.43986290    -0.18400
C182        C  0.33399416  0.29726928  0.43987633    -0.18400
H183        H  0.24028268  0.32954605  0.61751612     0.14500
H184        H  0.17080769  0.26010758  0.61750657     0.14500
H185        H  0.32939489  0.24050594  0.38275462     0.14500
H186        H  0.25990238  0.17105374  0.38273902     0.14500
H187        H  0.37622563  0.39588781  0.53305345     0.12800
H188        H  0.39556266  0.37657264  0.46696048     0.12800
H189        H  0.10441204  0.12425813  0.53300304     0.12800
H190        H  0.12377337  0.10491281  0.46693041     0.12800
H191        H  0.24829800  0.25207874  0.53310968     0.26100
H192        H  0.25175317  0.24866249  0.46690756     0.26100
N193        N  0.99682665  0.30372673  0.50125519    -0.36700
N194        N  0.02740568  0.26405996  0.55368866    -0.57200
N195        N  0.50274304  0.19701650  0.49830597    -0.36700
N196        N  0.47259057  0.23688099  0.44555641    -0.57200
C197        C  0.01747346  0.33505747  0.52623228     0.26900
C198        C  0.48416157  0.31838881  0.47212700     0.26900
C199        C  0.01675896  0.18285879  0.52673992     0.26900
C200        C  0.48328728  0.16611969  0.47269979     0.26900
C201        C  0.04121340  0.29997762  0.57276352     0.35500
C202        C  0.04261739  0.24278327  0.57198174     0.35500
C203        C  0.45647127  0.25766421  0.42788252     0.35500
C204        C  0.45767618  0.20041435  0.42718633     0.35500
C205        C  0.01693388  0.36975602  0.51306944    -0.22000
C206        C  0.49574569  0.35914571  0.47912862    -0.22000
C207        C  0.00712273  0.14281631  0.51864067    -0.22000
C208        C  0.48581211  0.13215576  0.48475242    -0.22000
C209        C  0.06456597  0.30095175  0.60395502    -0.23000
C210        C  0.06554925  0.26501436  0.60337997    -0.23000
C211        C  0.43197004  0.23466197  0.39751918    -0.23000
C212        C  0.43281249  0.19865868  0.39700004    -0.23000
C213        C  0.03739600  0.33394754  0.56032544    -0.18400
C214        C  0.46155952  0.29607567  0.43968471    -0.18400
C215        C  0.46234846  0.16683292  0.43920795    -0.18400
C216        C  0.03848401  0.20485721  0.55970570    -0.18400
H217        H  0.03034331  0.39974120  0.52651172     0.14500
H218        H  0.48999412  0.37932976  0.46132390     0.14500
H219        H  0.01412434  0.12304902  0.53573080     0.14500
H220        H  0.47352977  0.10261044  0.47064298     0.14500
H221        H  0.08104683  0.32567512  0.62420245     0.12800
H222        H  0.08263584  0.25718163  0.62323165     0.12800
H223        H  0.41401847  0.24210892  0.37836908     0.12800
H224        H  0.41535096  0.17339986  0.37749957     0.12800
H225        H  0.99071213  0.27380524  0.50421827     0.26100
H226        H  0.50683255  0.22624400  0.49631836     0.26100
N227        N  0.19604447  0.50307305  0.99854729    -0.36700
N228        N  0.23571185  0.47250129  0.94610285    -0.57200
N229        N  0.30273587  0.49710765  0.00152672    -0.36700
N230        N  0.26294702  0.02731052  0.05424071    -0.57200
C231        C  0.16473109  0.48249984  0.97353260     0.26900
C232        C  0.18145980  0.01582177  0.02763394     0.26900
C233        C  0.31693694  0.48320117  0.97303849     0.26900
C234        C  0.33372503  0.01664936  0.02708698     0.26900
C235        C  0.19974119  0.45860071  0.92708585     0.35500
C236        C  0.25693966  0.45720131  0.92786935     0.35500
C237        C  0.24214013  0.04338207  0.07194915     0.35500
C238        C  0.29938099  0.04214409  0.07266230     0.35500
C239        C  0.13007808  0.48317314  0.98662106    -0.22000
C240        C  0.14074089  0.00435590  0.02056518    -0.22000
C241        C  0.35704126  0.49298707  0.98105754    -0.22000
C242        C  0.36773748  0.01424928  0.01496616    -0.22000
C243        C  0.19868897  0.43510547  0.89598785    -0.23000
C244        C  0.23463159  0.43412746  0.89656402    -0.23000
C245        C  0.26509917  0.06777730  0.10238146    -0.23000
C246        C  0.30109367  0.06691154  0.10291263    -0.23000
C247        C  0.16580629  0.46249954  0.93948592    -0.18400
C248        C  0.20376111  0.03836662  0.06010890    -0.18400
C249        C  0.33298723  0.03752496  0.06061451    -0.18400
C250        C  0.29491145  0.46141410  0.94010813    -0.18400
H251        H  0.10011128  0.46983026  0.97314110     0.14500
H252        H  0.12057942  0.01018118  0.03832576     0.14500
H253        H  0.37684547  0.48608441  0.96391500     0.14500
H254        H  0.39731533  0.02659955  0.02903574     0.14500
H255        H  0.17391159  0.41853217  0.87580888     0.12800
H256        H  0.24242310  0.41695523  0.87678197     0.12800
H257        H  0.25763597  0.08568059  0.12157134     0.12800
H258        H  0.32632240  0.08430426  0.12246367     0.12800
H259        H  0.22592792  0.50905931  0.99564599     0.26100
H260        H  0.27344488  0.49285306  0.00359140     0.26100
N261        N  0.19651514  0.00323175  0.50143903    -0.36700
N262        N  0.26351061  0.02777502  0.44596017    -0.57200
N263        N  0.30317746  0.99720482  0.49844885    -0.36700
N264        N  0.23629056  0.47282808  0.55405525    -0.57200
C265        C  0.18219617  0.01683657  0.47279034     0.26900
C266        C  0.16551723  0.48343911  0.52688620     0.26900
C267        C  0.33445687  0.01764556  0.47336757     0.26900
C268        C  0.31771638  0.48413423  0.52738333     0.26900
C269        C  0.24237817  0.04324563  0.42782919     0.35500
C270        C  0.29962682  0.04195840  0.42711720     0.35500
C271        C  0.19998559  0.45826306  0.57265447     0.35500
C272        C  0.25715033  0.45686925  0.57186229     0.35500
C273        C  0.14193040  0.00663574  0.48058044    -0.22000
C274        C  0.13133143  0.48539949  0.51452107    -0.22000
C275        C  0.36897532  0.01659772  0.48625905    -0.22000
C276        C  0.35833117  0.49528083  0.52014235    -0.22000
C277        C  0.26486807  0.06667896  0.39674390    -0.23000
C278        C  0.30085256  0.06578194  0.39621696    -0.23000
C279        C  0.19839271  0.43375298  0.60309837    -0.23000
C280        C  0.23432997  0.43277710  0.60251093    -0.23000
C281        C  0.20429188  0.03881507  0.43996165    -0.18400
C282        C  0.16633618  0.46278246  0.56055716    -0.18400
C283        C  0.29543740  0.46169890  0.55993183    -0.18400
C284        C  0.33349265  0.03791413  0.43946732    -0.18400
H285        H  0.12203134  0.01326536  0.46327959     0.14500
H286        H  0.10165894  0.47281764  0.52845992     0.14500
H287        H  0.39889592  0.02980117  0.47269487     0.14500
H288        H  0.37840316  0.48919855  0.53776928     0.14500
H289        H  0.25715390  0.08402702  0.37709437     0.12800
H290        H  0.32576491  0.08260614  0.37621242     0.12800
H291        H  0.17327157  0.41658432  0.62282295     0.12800
H292        H  0.24183877  0.41500358  0.62182836     0.12800
H293        H  0.22596847  0.00792298  0.50371560     0.26100
H294        H  0.27340892  0.99158471  0.49570887     0.26100
O295        O  0.47478176  0.08311724  0.24986567    -0.71800
O296        O  0.41603335  0.14188243  0.24986653    -0.72100
O297        O  0.44537564  0.11271268  0.30403727    -0.71900
O298        O  0.44523680  0.11258636  0.19568836    -0.71900
O299        O  0.38713349  0.05449504  0.19578809    -0.71900
O300        O  0.38727193  0.05462162  0.30413667    -0.71900
O301        O  0.35797993  0.08384099  0.24996099    -0.71800
O302        O  0.41672468  0.02507227  0.24995895    -0.72000
V303        V  0.44429272  0.11136384  0.24986587     1.35200
V304        V  0.38848858  0.05557169  0.24995966     1.35200
C305        C  0.45577195  0.04407319  0.24991277     0.77400
C306        C  0.37697940  0.12289155  0.24991394     0.77500
C307        C  0.41581214  0.08422517  0.32245954     0.77300
C308        C  0.41562519  0.08405444  0.17736540     0.77300
C309        C  0.35425248  0.20884998  0.24991739     0.80200
N310        N  0.37503373  0.18771519  0.24992021    -0.78100
C311        C  0.35417464  0.14569901  0.24991299     0.82600
N312        N  0.31215486  0.12484257  0.24990327    -0.78100
C313        C  0.29101744  0.14562070  0.24990107     0.82700
N314        N  0.31226387  0.18760517  0.24990810    -0.79800
O315        O  0.10735287  0.02518700  0.25006613    -0.71800
O316        O  0.22509910  0.08379714  0.24996350    -0.72100
O317        O  0.16660235  0.05471683  0.30425849    -0.71900
O318        O  0.16648459  0.05458435  0.19579202    -0.71900
O319        O  0.16676851  0.11267855  0.19575581    -0.71900
O320        O  0.16689689  0.11281530  0.30418079    -0.71900
O321        O  0.22540935  0.14186458  0.24990375    -0.71800
O322        O  0.10764173  0.08324335  0.25001636    -0.72000
V323        V  0.16622538  0.05562672  0.25002160     1.35200
V324        V  0.16652058  0.11143580  0.24996719     1.35200
C325        C  0.08741080  0.04420082  0.25002988     0.77400
C326        C  0.24534012  0.12283337  0.24991825     0.77500
C327        C  0.16793413  0.08437776  0.32261613     0.77300
C328        C  0.16773564  0.08418118  0.17737697     0.77300
O329        O  0.47467424  0.39250352  0.24975966    -0.71800
O330        O  0.41607797  0.27476675  0.24985336    -0.72100
O331        O  0.44513538  0.33326620  0.19556312    -0.71900
O332        O  0.44529576  0.33336486  0.30402719    -0.71900
O333        O  0.38718694  0.33306286  0.30407520    -0.71900
O334        O  0.38702881  0.33296666  0.19565508    -0.71900
O335        O  0.35799992  0.27444611  0.24991989    -0.71800
O336        O  0.41660686  0.39220293  0.24982635    -0.72000
V337        V  0.44424091  0.33363511  0.24979929     1.35200
V338        V  0.38842100  0.33332877  0.24986589     1.35200
C339        C  0.45565294  0.41243856  0.24980718     0.77400
C340        C  0.37703829  0.25452259  0.24990077     0.77500
C341        C  0.41546372  0.33193264  0.17721376     0.77300
C342        C  0.41569409  0.33209769  0.32244685     0.77300
C343        C  0.41284926  0.08672054  0.13585461     0.80200
N344        N  0.37837307  0.05824847  0.11723359    -0.78100
C345        C  0.37285080  0.06375473  0.07983525     0.82600
N346        N  0.40126801  0.09810869  0.06150829    -0.78100
C347        C  0.43565510  0.12660144  0.07973430     0.82700
N348        N  0.44129285  0.12112968  0.11711443    -0.79800
C349        C  0.41263875  0.32644128  0.13563830     0.80200
N350        N  0.44093300  0.32038736  0.11685106    -0.78100
C351        C  0.43555347  0.30993301  0.07928431     0.82600
N352        N  0.40164698  0.30490877  0.06087903    -0.78100
C353        C  0.37317682  0.31054440  0.07931784     0.82700
N354        N  0.37836204  0.32077773  0.11693056    -0.79800
C355        C  0.17302091  0.08683358  0.13578435     0.80200
N356        N  0.17900813  0.05848429  0.11703749    -0.78100
C357        C  0.18919631  0.06367434  0.07940545     0.82600
N358        N  0.19414837  0.09751302  0.06091789    -0.78100
C359        C  0.18863629  0.12606982  0.07933540     0.82700
N360        N  0.17857862  0.12102342  0.11699034    -0.79800
C361        C  0.41304826  0.32679809  0.36403587     0.80200
N362        N  0.37884638  0.32120565  0.38283279    -0.78100
C363        C  0.37381404  0.31114115  0.42048636     0.82600
N364        N  0.40239787  0.30566117  0.43889967    -0.78100
C365        C  0.43624778  0.31064755  0.42040807     0.82700
N366        N  0.44142132  0.32083529  0.38277621    -0.79800
C367        C  0.41315313  0.08699362  0.36397025     0.80200
N368        N  0.37875006  0.05854317  0.38271397    -0.78100
C369        C  0.37329602  0.06416089  0.42010188     0.82600
N370        N  0.40179333  0.09854029  0.43832995    -0.78100
C371        C  0.43613323  0.12697168  0.41999387     0.82700
N372        N  0.44162595  0.12146636  0.38259028    -0.79800
C373        C  0.17342172  0.08718362  0.36419509     0.80200
N374        N  0.17908292  0.12144843  0.38291341    -0.78100
C375        C  0.18930770  0.12661373  0.42052986     0.82600
N376        N  0.19492683  0.09813065  0.43896464    -0.78100
C377        C  0.18990147  0.06423445  0.42055197     0.82700
N378        N  0.17947104  0.05888189  0.38297733    -0.79800
C379        C  0.47856393  0.02127845  0.24991449     0.80200
N380        N  0.02057896  0.04214216  0.24996898    -0.78100
C381        C  0.04172143  0.02137548  0.24998012     0.82600
N382        N  0.02047361  0.47937872  0.24993158    -0.78100
C383        C  0.47847473  0.45812537  0.24986186     0.82700
N384        N  0.45770224  0.47926341  0.24986563    -0.79800
C385        C  0.02065593  0.97917804  0.74991034     0.80200
N386        N  0.47864023  0.95831438  0.74995933    -0.78100
C387        C  0.45749656  0.97908096  0.74997218     0.82600
N388        N  0.47874972  0.52107421  0.74993952    -0.78100
C389        C  0.02074746  0.54232434  0.74987854     0.82700
N390        N  0.04151870  0.52118467  0.74986982    -0.79800
O391        O  0.02444271  0.91733807  0.74987506    -0.71800
O392        O  0.08318770  0.85856734  0.74989081    -0.72100
O393        O  0.05387290  0.88775719  0.80406727    -0.71900
O394        O  0.05397353  0.88784562  0.69569591    -0.71900
O395        O  0.11207172  0.94593866  0.69574272    -0.71900
O396        O  0.11198052  0.94584106  0.80411116    -0.71900
O397        O  0.14124225  0.91660710  0.74992719    -0.71800
O398        O  0.08249947  0.97538190  0.74992692    -0.72000
V399        V  0.05493218  0.88908940  0.74988321     1.35200
V400        V  0.11073593  0.94487910  0.74992579     1.35200
C401        C  0.04345137  0.95638247  0.74990310     0.77400
C402        C  0.12224131  0.87755636  0.74990842     0.77500
C403        C  0.08345316  0.91624020  0.82246736     0.77300
C404        C  0.08358657  0.91636289  0.67734137     0.77300
C405        C  0.14504453  0.85474723  0.74990484     0.80200
N406        N  0.18706410  0.87560335  0.74991171    -0.78100
C407        C  0.20820190  0.85482558  0.74991039     0.82600
N408        N  0.18695574  0.81284115  0.74989838    -0.78100
C409        C  0.14496709  0.79159605  0.74988841     0.82700
N410        N  0.12418536  0.81273083  0.74989364    -0.79800
O411        O  0.08261343  0.60824204  0.74984963    -0.71800
O412        O  0.14121979  0.72599819  0.74988118    -0.72100
O413        O  0.11205030  0.66737696  0.80404932    -0.71900
O414        O  0.11218237  0.66745529  0.69567137    -0.71900
O415        O  0.05408361  0.66717331  0.69556409    -0.71900
O416        O  0.05394706  0.66708747  0.80404993    -0.71900
O417        O  0.08314270  0.72567966  0.74983369    -0.71800
O418        O  0.02454724  0.60794462  0.74979805    -0.72000
V419        V  0.11079973  0.66711304  0.74986049     1.35200
V420        V  0.05498179  0.66681199  0.74981023     1.35200
C421        C  0.04356808  0.58800901  0.74983631     0.77400
C422        C  0.12218189  0.74592299  0.74986772     0.77500
C423        C  0.08355915  0.66834299  0.82244268     0.77300
C424        C  0.08374871  0.66847147  0.67722395     0.77300
O425        O  0.39158121  0.91721495  0.75002328    -0.71800
O426        O  0.27381418  0.85858634  0.74995308    -0.72100
O427        O  0.33246180  0.88773899  0.69580384    -0.71900
O428        O  0.33234947  0.88767011  0.80418494    -0.71900
O429        O  0.33261856  0.94575694  0.80423732    -0.71900
O430        O  0.33273221  0.94582726  0.69575093    -0.71900
O431        O  0.27411766  0.91665051  0.74995000    -0.71800
O432        O  0.39186377  0.97526847  0.75002007    -0.72000
V433        V  0.33270571  0.88901857  0.74999343     1.35200
V434        V  0.33299143  0.94482364  0.74999135     1.35200
C435        C  0.41180836  0.95625671  0.75001244     0.77400
C436        C  0.25387970  0.87761456  0.74993664     0.77500
C437        C  0.33149866  0.91621690  0.67738332     0.77300
C438        C  0.33132693  0.91611073  0.82260560     0.77300
C439        C  0.32623525  0.91349156  0.63579758     0.80200
N440        N  0.32017807  0.94175031  0.61695856    -0.78100
C441        C  0.30996154  0.93643925  0.57933730     0.82600
N442        N  0.30507938  0.90258243  0.56094865    -0.78100
C443        C  0.31068598  0.87412546  0.57946010     0.82700
N444        N  0.32075949  0.87928980  0.61710387    -0.79800
C445        C  0.08638711  0.91365262  0.63582412     0.80200
N446        N  0.05795406  0.87922222  0.61710564    -0.78100
C447        C  0.06364336  0.87370731  0.57974502     0.82600
N448        N  0.09806307  0.90216800  0.56153190    -0.78100
C449        C  0.12645432  0.93654441  0.57981805     0.82700
N450        N  0.12088499  0.94210652  0.61719092    -0.79800
C451        C  0.08615373  0.91345846  0.86398757     0.80200
N452        N  0.12057821  0.94190209  0.88270890    -0.78100
C453        C  0.12607664  0.93624012  0.92008279     0.82600
N454        N  0.09760902  0.90183355  0.93830555    -0.78100
C455        C  0.06324420  0.87342713  0.92001192     0.82700
N456        N  0.05769661  0.87897089  0.88262765    -0.79800
C457        C  0.32589574  0.91327429  0.86418299     0.80200
N458        N  0.31979855  0.94150134  0.88303130    -0.78100
C459        C  0.30933529  0.93602884  0.92060355     0.82600
N460        N  0.30435033  0.90210006  0.93894576    -0.78100
C461        C  0.31005187  0.87370973  0.92044177     0.82700
N462        N  0.32030256  0.87899619  0.88283542    -0.79800
C463        C  0.08661329  0.67390839  0.63564880     0.80200
N464        N  0.12089672  0.67948671  0.61701481    -0.78100
C465        C  0.12620297  0.68974317  0.57940854     0.82600
N466        N  0.09783494  0.69547799  0.56089179    -0.78100
C467        C  0.06390555  0.69051395  0.57921971     0.82700
N468        N  0.05840540  0.68002850  0.61678531    -0.79800
C469        C  0.08627544  0.67363186  0.86402466     0.80200
N470        N  0.12048866  0.67914115  0.88273103    -0.78100
C471        C  0.12564214  0.68922287  0.92037076     0.82600
N472        N  0.09715871  0.69479583  0.93886870    -0.78100
C473        C  0.06329036  0.68988138  0.92046826     0.82700
N474        N  0.05799474  0.67966927  0.88284613    -0.79800
N475        N  0.23682053  0.76249901  0.94513446    -0.36700
N476        N  0.19419260  0.69461499  0.99979844    -0.57200
N477        N  0.26202979  0.73722004  0.05448867    -0.36700
N478        N  0.30467077  0.80509079  0.99981730    -0.57200
C479        C  0.19897345  0.74199475  0.92868064     0.26900
C480        C  0.25732652  0.80035831  0.92869410     0.26900
C481        C  0.24154460  0.69933651  0.07088404     0.26900
C482        C  0.29990754  0.75768326  0.07088842     0.26900
C483        C  0.16472400  0.68086272  0.97257267     0.35500
C484        C  0.18037880  0.66517190  0.02706099     0.35500
C485        C  0.31843217  0.83458114  0.97260011     0.35500
C486        C  0.33410767  0.81887311  0.02707661     0.35500
C487        C  0.19635587  0.76645402  0.90030805    -0.22000
C488        C  0.23288659  0.80298862  0.90031484    -0.22000
C489        C  0.26604696  0.69663668  0.09915736    -0.22000
C490        C  0.30258254  0.73316601  0.09916200    -0.22000
C491        C  0.13201268  0.64254031  0.98263656    -0.23000
C492        C  0.14200522  0.63252503  0.01704755    -0.23000
C493        C  0.35675455  0.86727974  0.98266842    -0.23000
C494        C  0.36676421  0.85724929  0.01706705    -0.23000
C495        C  0.16549186  0.70298902  0.93965500    -0.18400
C496        C  0.29631493  0.83383958  0.93968571    -0.18400
C497        C  0.33335051  0.79673402  0.05998349    -0.18400
C498        C  0.20248578  0.66591345  0.05997670    -0.18400
H499        H  0.17023216  0.75966263  0.88233064     0.17300
H500        H  0.23969168  0.82912314  0.88234079     0.14500
H501        H  0.25927034  0.67046568  0.11706726     0.14500
H502        H  0.32874380  0.73993618  0.11707894     0.14500
H503        H  0.10383965  0.62374150  0.96681602     0.12800
H504        H  0.12315286  0.60438622  0.03290679     0.12800
H505        H  0.37555833  0.89546566  0.96685615     0.12800
H506        H  0.39490364  0.87607922  0.03292261     0.12800
H507        H  0.24768531  0.75162455  0.96675837     0.26100
H508        H  0.25110890  0.74815657  0.03296305     0.26100
N509        N  0.49661702  0.80337920  0.99840077    -0.36700
N510        N  0.02693771  0.76360892  0.94574514    -0.57200
N511        N  0.50257126  0.69668176  0.00135020    -0.36700
N512        N  0.47203449  0.73635808  0.05384232    -0.57200
C513        C  0.01631663  0.83437800  0.97291435     0.26900
C514        C  0.48292185  0.81765784  0.02700137     0.26900
C515        C  0.01553698  0.68214273  0.97236705     0.26900
C516        C  0.48206622  0.66538325  0.02639940     0.26900
C517        C  0.04159703  0.79995946  0.92720746     0.35500
C518        C  0.04293576  0.74277262  0.92796807     0.35500
C519        C  0.45666566  0.75754238  0.07203950     0.35500
C520        C  0.45794417  0.70028985  0.07274437     0.35500
C521        C  0.01423239  0.86851153  0.98521058    -0.22000
C522        C  0.49298179  0.85786718  0.01913383    -0.22000
C523        C  0.00427681  0.64149140  0.97954564    -0.22000
C524        C  0.48297807  0.63082035  0.01343698    -0.22000
C525        C  0.06620435  0.80160300  0.89683155    -0.23000
C526        C  0.06714107  0.76564879  0.89739688    -0.23000
C527        C  0.43338725  0.73512856  0.10322395    -0.23000
C528        C  0.43428047  0.69914461  0.10374650    -0.23000
C529        C  0.03702826  0.83358300  0.93927938    -0.18400
C530        C  0.46101262  0.79558398  0.05986738    -0.18400
C531        C  0.46188898  0.66638347  0.06034927    -0.18400
C532        C  0.03802241  0.70444278  0.93985086    -0.18400
H533        H  0.02674445  0.89815525  0.97123121     0.14500
H534        H  0.48626775  0.87773230  0.03638707     0.14500
H535        H  0.01028013  0.62139766  0.96187518     0.14500
H536        H  0.46971460  0.60088078  0.02696864     0.14500
H537        H  0.08345265  0.82676331  0.87716548     0.12800
H538        H  0.08495733  0.75815757  0.87811889     0.12800
H539        H  0.41613761  0.74288640  0.12294903     0.12800
H540        H  0.41755146  0.67428519  0.12382308     0.12800
H541        H  0.49207217  0.77398327  0.99619421     0.26100
H542        H  0.50832460  0.72648853  0.00415132     0.26100
N543        N  0.23742769  0.76294550  0.55472879    -0.36700
N544        N  0.30529642  0.80557723  0.50005081    -0.57200
N545        N  0.26267370  0.73774377  0.44536729    -0.36700
N546        N  0.19481866  0.69509916  0.50005072    -0.57200
C547        C  0.25792886  0.80079452  0.57117038     0.26900
C548        C  0.19956422  0.74244512  0.57116545     0.26900
C549        C  0.30055217  0.75823423  0.42895923     0.26900
C550        C  0.24220030  0.69987462  0.42896097     0.26900
C551        C  0.31905964  0.83503969  0.52727785     0.35500
C552        C  0.33473726  0.81938798  0.47278635     0.35500
C553        C  0.16533552  0.68133713  0.52727481     0.35500
C554        C  0.18102764  0.66566432  0.47279411     0.35500
C555        C  0.23346486  0.80341688  0.59953251    -0.22000
C556        C  0.19693049  0.76688897  0.59953110    -0.22000
C557        C  0.30323906  0.73374315  0.40067303    -0.22000
C558        C  0.26670681  0.69721000  0.40067191    -0.22000
C559        C  0.35738680  0.86774410  0.51721387    -0.23000
C560        C  0.36739418  0.85775351  0.48280093    -0.23000
C561        C  0.13263388  0.64301569  0.51721500    -0.23000
C562        C  0.14265453  0.63300697  0.48281419    -0.23000
C563        C  0.29693415  0.83427526  0.56019254    -0.18400
C564        C  0.16607917  0.70345948  0.56018066    -0.18400
C565        C  0.20315089  0.66643066  0.43987325    -0.18400
C566        C  0.33398232  0.79728795  0.43986503    -0.18400
H567        H  0.24025086  0.82954218  0.61749826     0.14500
H568        H  0.17079242  0.76008863  0.61749849     0.14500
H569        H  0.32940368  0.74052585  0.38275097     0.14500
H570        H  0.25992919  0.67105759  0.38274626     0.14500
H571        H  0.37619239  0.89591152  0.53303516     0.12800
H572        H  0.39553377  0.87660299  0.46694039     0.12800
H573        H  0.10444995  0.62421437  0.53303232     0.12800
H574        H  0.12381757  0.60487059  0.46696157     0.12800
H575        H  0.24830488  0.75207652  0.53311397     0.26100
H576        H  0.25174750  0.74865636  0.46690510     0.26100
N577        N  0.99679825  0.80371556  0.50126840    -0.36700
N578        N  0.02740939  0.76406281  0.55368793    -0.57200
N579        N  0.50277311  0.69703241  0.49829647    -0.36700
N580        N  0.47258761  0.73688192  0.44556217    -0.57200
C581        C  0.01742678  0.83504084  0.52625441     0.26900
C582        C  0.48411471  0.81837071  0.47214916     0.26900
C583        C  0.01680357  0.68288134  0.52672360     0.26900
C584        C  0.48333126  0.66614021  0.47268359     0.26900
C585        C  0.04120556  0.79997715  0.57276621     0.35500
C586        C  0.04263568  0.74279566  0.57197564     0.35500
C587        C  0.45645879  0.75765808  0.42789040     0.35500
C588        C  0.45768863  0.70042016  0.42718602     0.35500
C589        C  0.01685406  0.86972781  0.51310885    -0.22000
C590        C  0.49566633  0.85911679  0.47916773    -0.22000
C591        C  0.00719264  0.64284886  0.51861117    -0.22000
C592        C  0.48588283  0.63218745  0.48472262    -0.22000
C593        C  0.06456610  0.80095870  0.60395367    -0.23000
C594        C  0.06556551  0.76502970  0.60337316    -0.23000
C595        C  0.43196675  0.73465591  0.39752282    -0.23000
C596        C  0.43282440  0.69866055  0.39699898    -0.23000
C597        C  0.03736719  0.83393810  0.56033754    -0.18400
C598        C  0.46152959  0.79606197  0.43969743    -0.18400
C599        C  0.46237730  0.66684587  0.43920008    -0.18400
C600        C  0.03851594  0.70487560  0.55969646    -0.18400
H601        H  0.03024357  0.89970629  0.52656186     0.14500
H602        H  0.48989515  0.87929445  0.46137367     0.14500
H603        H  0.01420926  0.62308722  0.53569322     0.14500
H604        H  0.47361624  0.60264811  0.47060499     0.14500
H605        H  0.08104019  0.82568161  0.62420301     0.12800
H606        H  0.08266156  0.75720468  0.62322072     0.12800
H607        H  0.41401072  0.74209698  0.37837281     0.12800
H608        H  0.41537372  0.67340417  0.37749307     0.12800
H609        H  0.99071309  0.77380312  0.50421822     0.26100
H610        H  0.50683933  0.72625106  0.49631919     0.26100
N611        N  0.19608960  0.00307528  0.99854814    -0.36700
N612        N  0.23575977  0.97250110  0.94610512    -0.57200
N613        N  0.30279396  0.99711485  0.00152052    -0.36700
N614        N  0.26290033  0.52731475  0.05423915    -0.57200
C615        C  0.16477608  0.98249580  0.97353617     0.26900
C616        C  0.18141632  0.51583079  0.02762661     0.26900
C617        C  0.31698565  0.98319094  0.97304063     0.26900
C618        C  0.33367559  0.51665833  0.02708416     0.26900
C619        C  0.19979448  0.95861302  0.92708113     0.35500
C620        C  0.25699258  0.95721066  0.92786424     0.35500
C621        C  0.24208759  0.54337627  0.07195299     0.35500
C622        C  0.29932651  0.54213402  0.07267125     0.35500
C623        C  0.13012093  0.98315827  0.98663154    -0.22000
C624        C  0.14069934  0.50437494  0.02055218    -0.22000
C625        C  0.35707805  0.99294978  0.98107479    -0.22000
C626        C  0.36770002  0.51428481  0.01494878    -0.22000
C627        C  0.19875003  0.93513446  0.89597249    -0.23000
C628        C  0.23469134  0.93415380  0.89654856    -0.23000
C629        C  0.26503633  0.56775248  0.10239932    -0.23000
C630        C  0.30102948  0.56688311  0.10293399    -0.23000
C631        C  0.16585658  0.96250502  0.93948440    -0.18400
C632        C  0.20371352  0.53837007  0.06010572    -0.18400
C633        C  0.33293777  0.53752569  0.06061835    -0.18400
C634        C  0.29495995  0.96141328  0.94010613    -0.18400
H635        H  0.10015276  0.96981238  0.97315407     0.14500
H636        H  0.12054010  0.51020758  0.03830850     0.14500
H637        H  0.37687545  0.98602864  0.96394264     0.14500
H638        H  0.39728457  0.52665123  0.02900846     0.14500
H639        H  0.17397834  0.91857360  0.87578529     0.12800
H640        H  0.24248566  0.91699062  0.87675830     0.12800
H641        H  0.25756809  0.58564562  0.12159704     0.12800
H642        H  0.32625126  0.58426193  0.12249544     0.12800
H643        H  0.22597907  0.00908986  0.99563306     0.26100
H644        H  0.27351068  0.99287291  0.00357960     0.26100
N645        N  0.19654656  0.50322120  0.50144087    -0.36700
N646        N  0.26354278  0.52777192  0.44596471    -0.57200
N647        N  0.30320809  0.49719720  0.49844775    -0.36700
N648        N  0.23625313  0.97282578  0.55404673    -0.57200
C649        C  0.18222795  0.51683109  0.47279597     0.26900
C650        C  0.16547985  0.98343646  0.52687644     0.26900
C651        C  0.33449055  0.51764751  0.47337077     0.26900
C652        C  0.31768353  0.98413740  0.52738259     0.26900
C653        C  0.24240349  0.54323132  0.42782808     0.35500
C654        C  0.29965675  0.54195325  0.42711870     0.35500
C655        C  0.19995060  0.95826641  0.57264880     0.35500
C656        C  0.25711856  0.95687795  0.57186226     0.35500
C657        C  0.14196827  0.50664467  0.48059578    -0.22000
C658        C  0.13128977  0.98538475  0.51450297    -0.22000
C659        C  0.36901181  0.51660764  0.48626575    -0.22000
C660        C  0.35829531  0.99527470  0.52013762    -0.22000
C661        C  0.26488728  0.56665608  0.39673671    -0.23000
C662        C  0.30087496  0.56576551  0.39621194    -0.23000
C663        C  0.19836405  0.93376899  0.60310152    -0.23000
C664        C  0.23430382  0.93279780  0.60251849    -0.23000
C665        C  0.20431851  0.53880206  0.43996225    -0.18400
C666        C  0.16629888  0.96278113  0.56054870    -0.18400
C667        C  0.29540455  0.96170466  0.55993205    -0.18400
C668        C  0.33352627  0.53791661  0.43947077    -0.18400
H669        H  0.12207078  0.51328118  0.46330018     0.14500
H670        H  0.10161188  0.97279057  0.52843389     0.14500
H671        H  0.39893504  0.52981947  0.47270544     0.14500
H672        H  0.37836537  0.98918751  0.53776239     0.14500
H673        H  0.25716750  0.58399492  0.37708126     0.12800
H674        H  0.32578349  0.58258584  0.37620298     0.12800
H675        H  0.17324665  0.91660693  0.62283128     0.12800
H676        H  0.24181833  0.91503569  0.62184487     0.12800
H677        H  0.22599483  0.50789885  0.50370982     0.26100
H678        H  0.27343651  0.49156761  0.49570478     0.26100
O679        O  0.47478272  0.58311470  0.24986223    -0.71800
O680        O  0.41603793  0.64188447  0.24984847    -0.72100
O681        O  0.44538402  0.61272380  0.30402666    -0.71900
O682        O  0.44523178  0.61257316  0.19567593    -0.71900
O683        O  0.38711982  0.55449084  0.19578739    -0.71900
O684        O  0.38728679  0.55462641  0.30413635    -0.71900
O685        O  0.35798350  0.58384422  0.24996745    -0.71800
O686        O  0.41672510  0.52507060  0.24995281    -0.72000
V687        V  0.44429500  0.61136318  0.24985478     1.35200
V688        V  0.38848998  0.55557223  0.24995922     1.35200
C689        C  0.45577271  0.54407057  0.24991072     0.77400
C690        C  0.37698401  0.62289493  0.24990643     0.77500
C691        C  0.41582800  0.58423393  0.32245440     0.77300
C692        C  0.41561045  0.58404482  0.17735850     0.77300
C693        C  0.35425636  0.70885376  0.24990541     0.80200
N694        N  0.37503844  0.68771961  0.24990896    -0.78100
C695        C  0.35417977  0.64570325  0.24990121     0.82600
N696        N  0.31216004  0.62484653  0.24988926    -0.78100
C697        C  0.29102200  0.64562398  0.24988566     0.82700
N698        N  0.31226778  0.68760834  0.24989419    -0.79800
O699        O  0.10735760  0.52518665  0.25008020    -0.71800
O700        O  0.22510442  0.58379951  0.24994536    -0.72100
O701        O  0.16662600  0.55471609  0.30425713    -0.71900
O702        O  0.16647057  0.55458689  0.19579113    -0.71900
O703        O  0.16676122  0.61268456  0.19576823    -0.71900
O704        O  0.16691055  0.61280961  0.30419176    -0.71900
O705        O  0.22541308  0.64186617  0.24990595    -0.71800
O706        O  0.10764510  0.58324227  0.25003610    -0.72000
V707        V  0.16623045  0.55562766  0.25002043     1.35200
V708        V  0.16652415  0.61143601  0.24997853     1.35200
C709        C  0.08741458  0.54419967  0.25004787     0.77400
C710        C  0.24534468  0.62283578  0.24990695     0.77500
C711        C  0.16795675  0.58437327  0.32262066     0.77300
C712        C  0.16771835  0.58418583  0.17738283     0.77300
O713        O  0.47467181  0.89250767  0.24975911    -0.71800
O714        O  0.41608027  0.77477165  0.24984498    -0.72100
O715        O  0.44513972  0.83327548  0.19556020    -0.71900
O716        O  0.44529155  0.83336405  0.30402455    -0.71900
O717        O  0.38718465  0.83306572  0.30406986    -0.71900
O718        O  0.38702866  0.83296700  0.19564894    -0.71900
O719        O  0.35800089  0.77444837  0.24991480    -0.71800
O720        O  0.41660341  0.89220514  0.24981934    -0.72000
V721        V  0.44424084  0.83363964  0.24979590     1.35200
V722        V  0.38841972  0.83333085  0.24986022     1.35200
C723        C  0.45564950  0.91244160  0.24980221     0.77400
C724        C  0.37704069  0.75452624  0.24989241     0.77500
C725        C  0.41546685  0.83193710  0.17720927     0.77300
C726        C  0.41568924  0.83209706  0.32244314     0.77300
C727        C  0.41282176  0.58671100  0.13584786     0.80200
N728        N  0.37833357  0.55824802  0.11723435    -0.78100
C729        C  0.37280267  0.56375765  0.07983856     0.82600
N730        N  0.40122384  0.59810629  0.06150711    -0.78100
C731        C  0.43562271  0.62658965  0.07972503     0.82700
N732        N  0.44126893  0.62111417  0.11710228    -0.79800
C733        C  0.41264551  0.82644440  0.13563414     0.80200
N734        N  0.44094676  0.82039864  0.11685010    -0.78100
C735        C  0.43557284  0.80994445  0.07928334     0.82600
N736        N  0.40166417  0.80491057  0.06087526    -0.78100
C737        C  0.37318679  0.81053698  0.07931130     0.82700
N738        N  0.37836701  0.82077144  0.11692364    -0.79800
C739        C  0.17299146  0.58683980  0.13579014     0.80200
N740        N  0.17896335  0.55848490  0.11703586    -0.78100
C741        C  0.18915118  0.56367837  0.07940420     0.82600
N742        N  0.19411562  0.59752531  0.06092365    -0.78100
C743        C  0.18861682  0.62608677  0.07934849     0.82700
N744        N  0.17856155  0.62103792  0.11700365    -0.79800
C745        C  0.41303915  0.82679563  0.36403282     0.80200
N746        N  0.37884224  0.82121987  0.38282748    -0.78100
C747        C  0.37380544  0.81116033  0.42048222     0.82600
N748        N  0.40237904  0.80566736  0.43889912    -0.78100
C749        C  0.43622266  0.81063438  0.42040998     0.82700
N750        N  0.44140168  0.82081879  0.38277683    -0.79800
C751        C  0.41317782  0.58700194  0.36396640     0.80200
N752        N  0.37877963  0.55854883  0.38271438    -0.78100
C753        C  0.37332917  0.56416598  0.42010336     0.82600
N754        N  0.40182698  0.59854783  0.43832895    -0.78100
C755        C  0.43616358  0.62698138  0.41998906     0.82700
N756        N  0.44165140  0.62147609  0.38258410    -0.79800
C757        C  0.17344976  0.58717651  0.36419894     0.80200
N758        N  0.17911125  0.62143985  0.38291997    -0.78100
C759        C  0.18933675  0.62660277  0.42053601     0.82600
N760        N  0.19495552  0.59811839  0.43896820    -0.78100
C761        C  0.18992926  0.56422299  0.42055330     0.82700
N762        N  0.17949811  0.55887257  0.38297851    -0.79800
C763        C  0.47856577  0.52127551  0.24991911     0.80200
N764        N  0.02058107  0.54213958  0.24998004    -0.78100
C765        C  0.04172454  0.52137354  0.24999651     0.82600
N766        N  0.02046996  0.97938076  0.24991758    -0.78100
C767        C  0.47847119  0.95812804  0.24985379     0.82700
N768        N  0.45769941  0.97926647  0.24986173    -0.79800
C769        C  0.52065367  0.47917227  0.74990949     0.80200
N770        N  0.97863844  0.45831122  0.74996758    -0.78100
C771        C  0.95749784  0.47908060  0.74998893     0.82600
N772        N  0.97874595  0.02107476  0.74992390    -0.78100
C773        C  0.52074376  0.04232735  0.74987070     0.82700
N774        N  0.54151781  0.02119029  0.74986984    -0.79800
O775        O  0.52443710  0.41733020  0.74986678    -0.71800
O776        O  0.58318688  0.35856427  0.74987942    -0.72100
O777        O  0.55385935  0.38774164  0.80405580    -0.71900
O778        O  0.55397771  0.38784706  0.69568555    -0.71900
O779        O  0.61208238  0.44593371  0.69574294    -0.71900
O780        O  0.61195763  0.44583504  0.80411062    -0.71900
O781        O  0.64123969  0.41660596  0.74994062    -0.71800
O782        O  0.58249368  0.47537449  0.74991429    -0.72000
V783        V  0.55492806  0.38908292  0.74987277     1.35200
V784        V  0.61073069  0.44487402  0.74992547     1.35200
C785        C  0.54344610  0.45637478  0.74989454     0.77400
C786        C  0.62224068  0.37755570  0.74991041     0.77500
C787        C  0.58342951  0.41622911  0.82246120     0.77300
C788        C  0.58359886  0.41636169  0.67733665     0.77300
C789        C  0.64504617  0.35474976  0.74990725     0.80200
N790        N  0.68706574  0.37560764  0.74991572    -0.78100
C791        C  0.70820470  0.35483110  0.74991250     0.82600
N792        N  0.68695953  0.31284628  0.74989839    -0.78100
C793        C  0.64497066  0.29159996  0.74988686     0.82700
N794        N  0.62418838  0.31273376  0.74989265    -0.79800
O795        O  0.58260817  0.10824426  0.74983976    -0.71800
O796        O  0.64122014  0.22599998  0.74988177    -0.72100
O797        O  0.61204620  0.16737175  0.80404475    -0.71900
O798        O  0.61217936  0.16746201  0.69566727    -0.71900
O799        O  0.55407742  0.16717380  0.69556308    -0.71900
O800        O  0.55394915  0.16709459  0.80404909    -0.71900
O801        O  0.58314466  0.22568459  0.74982921    -0.71800
O802        O  0.52454278  0.10794845  0.74979862    -0.72000
V803        V  0.61079664  0.16711462  0.74985611     1.35200
V804        V  0.55498008  0.16681633  0.74980887     1.35200
C805        C  0.54356300  0.08801204  0.74983053     0.77400
C806        C  0.62218409  0.24592654  0.74986566     0.77500
C807        C  0.58355864  0.16834236  0.82244021     0.77300
C808        C  0.58374260  0.16847388  0.67722157     0.77300
O809        O  0.89158213  0.41721755  0.75004653    -0.71800
O810        O  0.77381653  0.35859277  0.74996422    -0.72100
O811        O  0.83247127  0.38773820  0.69582036    -0.71900
O812        O  0.83234279  0.38768077  0.80420245    -0.71900
O813        O  0.83260879  0.44576601  0.80424385    -0.71900
O814        O  0.83274870  0.44582987  0.69575649    -0.71900
O815        O  0.77412088  0.41665737  0.74994593    -0.71800
O816        O  0.89186735  0.47527245  0.75003681    -0.72000
V817        V  0.83270736  0.38902345  0.75001047     1.35200
V818        V  0.83299492  0.44482941  0.74999770     1.35200
C819        C  0.91181035  0.45625908  0.75003271     0.77400
C820        C  0.75388251  0.37762123  0.74993938     0.77500
C821        C  0.83151595  0.41621698  0.67739374     0.77300
C822        C  0.83131281  0.41612072  0.82261749     0.77300
C823        C  0.82626155  0.41349043  0.63580611     0.80200
N824        N  0.82020869  0.44174943  0.61696219    -0.78100
C825        C  0.80999811  0.43643800  0.57933949     0.82600
N826        N  0.80511615  0.40257976  0.56095422    -0.78100
C827        C  0.81071702  0.37412136  0.57946999     0.82700
N828        N  0.82078595  0.37928681  0.61711528    -0.79800
C829        C  0.58641007  0.41365263  0.63582076     0.80200
N830        N  0.55797720  0.37922646  0.61709691    -0.78100
C831        C  0.56367373  0.37371337  0.57973765     0.82600
N832        N  0.59809949  0.40217217  0.56153128    -0.78100
C833        C  0.62649027  0.43654429  0.57982284     0.82700
N834        N  0.62091489  0.44210413  0.61719459    -0.79800
C835        C  0.58611878  0.41344763  0.86398168     0.80200
N836        N  0.62053498  0.44189665  0.88270866    -0.78100
C837        C  0.62602758  0.43623629  0.92008406     0.82600
N838        N  0.59756265  0.40182529  0.93830284    -0.78100
C839        C  0.56320599  0.37341312  0.92000300     0.82700
N840        N  0.55766401  0.37895540  0.88261716    -0.79800
C841        C  0.82586965  0.41328398  0.86419399     0.80200
N842        N  0.81975798  0.44150474  0.88303680    -0.78100
C843        C  0.80929247  0.43603299  0.92060878     0.82600
N844        N  0.80431701  0.40210985  0.93895536    -0.78100
C845        C  0.81003106  0.37372503  0.92045623     0.82700
N846        N  0.82028600  0.37901181  0.88285088    -0.79800
C847        C  0.58660361  0.17390895  0.63564692     0.80200
N848        N  0.62089375  0.17950636  0.61701241    -0.78100
C849        C  0.62619628  0.18976671  0.57940719     0.82600
N850        N  0.59781670  0.19548453  0.56089166    -0.78100
C851        C  0.56387914  0.19049849  0.57922014     0.82700
N852        N  0.55838355  0.18001070  0.61678476    -0.79800
C853        C  0.58627848  0.17362931  0.86402268     0.80200
N854        N  0.62049078  0.17913054  0.88272525    -0.78100
C855        C  0.62565194  0.18921512  0.92036432     0.82600
N856        N  0.59717696  0.19479886  0.93886557    -0.78100
C857        C  0.56330935  0.18989207  0.92046916     0.82700
N858        N  0.55800604  0.17967682  0.88284767    -0.79800
N859        N  0.73682339  0.26250454  0.94513599    -0.36700
N860        N  0.69420312  0.19460069  0.99978479    -0.57200
N861        N  0.76202730  0.23721278  0.05448396    -0.36700
N862        N  0.80466004  0.30510438  0.99983001    -0.57200
C863        C  0.69898119  0.24199114  0.92867381     0.26900
C864        C  0.75732331  0.30036620  0.92869936     0.26900
C865        C  0.74154939  0.19932592  0.07087430     0.26900
C866        C  0.79990103  0.25768462  0.07089110     0.26900
C867        C  0.66474207  0.18084507  0.97255182     0.35500
C868        C  0.68039620  0.16514760  0.02703779     0.35500
C869        C  0.81841395  0.33460448  0.97262258     0.35500
C870        C  0.83409010  0.31889000  0.02709590     0.35500
C871        C  0.69636177  0.26644708  0.90029898    -0.22000
C872        C  0.73288548  0.30298819  0.90031288    -0.22000
C873        C  0.76605163  0.19663277  0.09915167    -0.22000
C874        C  0.80257975  0.23316908  0.09916409    -0.22000
C875        C  0.63204227  0.14250993  0.98260078    -0.23000
C876        C  0.64203459  0.13249010  0.01701021    -0.23000
C877        C  0.85672447  0.36731384  0.98270475    -0.23000
C878        C  0.86673528  0.35727863  0.01710090    -0.23000
C879        C  0.66550455  0.20297941  0.93964217    -0.18400
C880        C  0.79630171  0.33385693  0.93970170    -0.18400
C881        C  0.83333821  0.29674279  0.05999455    -0.18400
C882        C  0.70249870  0.16589421  0.05995927    -0.18400
H883        H  0.67024102  0.25964863  0.88231436     0.17300
H884        H  0.73968581  0.32912147  0.88233890     0.14500
H885        H  0.75928064  0.17046188  0.11705935     0.14500
H886        H  0.82873879  0.23994592  0.11708683     0.14500
H887        H  0.60387717  0.12370605  0.96677113     0.12800
H888        H  0.62318960  0.10434203  0.03285931     0.12800
H889        H  0.87552081  0.39550891  0.96690241     0.12800
H890        H  0.89486759  0.37611318  0.03296448     0.12800
H891        H  0.74768769  0.25163471  0.96676397     0.26100
H892        H  0.75110508  0.24814619  0.03295696     0.26100
N893        N  0.99658997  0.30336533  0.99839227    -0.36700
N894        N  0.52693034  0.26360295  0.94574095    -0.57200
N895        N  0.00259763  0.19669478  0.00136010    -0.36700
N896        N  0.97203818  0.23636188  0.05384549    -0.57200
C897        C  0.51627581  0.33435887  0.97289837     0.26900
C898        C  0.98288641  0.31764129  0.02698864     0.26900
C899        C  0.51556888  0.18215729  0.97237968     0.26900
C900        C  0.98210114  0.16539928  0.02641416     0.26900
C901        C  0.54157973  0.29995102  0.92720078     0.35500
C902        C  0.54294277  0.24277648  0.92796936     0.35500
C903        C  0.95666009  0.25753956  0.07204036     0.35500
C904        C  0.95795918  0.20029735  0.07275137     0.35500
C905        C  0.51417197  0.36848445  0.98518421    -0.22000
C906        C  0.99292528  0.35784180  0.01910936    -0.22000
C907        C  0.50432366  0.14151193  0.97956660    -0.22000
C908        C  0.98302752  0.13084203  0.01345919    -0.22000
C909        C  0.56619493  0.30160223  0.89682849    -0.23000
C910        C  0.56714634  0.26565555  0.89739858    -0.23000
C911        C  0.93338794  0.23512586  0.10322748    -0.23000
C912        C  0.93429291  0.19914804  0.10375325    -0.23000
C913        C  0.53699491  0.33356672  0.93926770    -0.18400
C914        C  0.96099093  0.29557261  0.05986212    -0.18400
C915        C  0.96191683  0.16639713  0.06036022    -0.18400
C916        C  0.53804414  0.20445409  0.93985776    -0.18400
H917        H  0.52667023  0.39812315  0.97119762     0.14500
H918        H  0.98620104  0.37770368  0.03635641     0.14500
H919        H  0.51033374  0.12141997  0.96190030     0.14500
H920        H  0.96977319  0.10090531  0.02699565     0.14500
H921        H  0.58343921  0.32676342  0.87716216     0.12800
H922        H  0.58497229  0.25817203  0.87812524     0.12800
H923        H  0.91613304  0.24287848  0.12295111     0.12800
H924        H  0.91756965  0.17428960  0.12383205     0.12800
H925        H  0.99205940  0.27397602  0.99619216     0.26100
H926        H  0.00834263  0.22649756  0.00415734     0.26100
N927        N  0.73742916  0.26295051  0.55472900    -0.36700
N928        N  0.80531496  0.30556245  0.50006519    -0.57200
N929        N  0.76267328  0.23774471  0.44536901    -0.36700
N930        N  0.69480230  0.19511759  0.50004003    -0.57200
C931        C  0.75794405  0.30079493  0.57117832     0.26900
C932        C  0.69956464  0.24245854  0.57116475     0.26900
C933        C  0.80055445  0.25822395  0.42896484     0.26900
C934        C  0.74218746  0.19987906  0.42895722     0.26900
C935        C  0.81908315  0.33502449  0.52729303     0.35500
C936        C  0.83475720  0.31936722  0.47280230     0.35500
C937        C  0.66531521  0.18136344  0.52725984     0.35500
C938        C  0.68100234  0.16568831  0.47277779     0.35500
C939        C  0.73348610  0.30342243  0.59954376    -0.22000
C940        C  0.69694304  0.26690230  0.59953758    -0.22000
C941        C  0.80323138  0.23373058  0.40067532    -0.22000
C942        C  0.76668992  0.19720601  0.40066878    -0.22000
C943        C  0.85741573  0.36772185  0.51723173    -0.23000
C944        C  0.86742097  0.35772753  0.48281968    -0.23000
C945        C  0.63260130  0.14305273  0.51719066    -0.23000
C946        C  0.64261850  0.13304299  0.48278876    -0.23000
C947        C  0.79695717  0.33426766  0.56020496    -0.18400
C948        C  0.66606920  0.20348189  0.56017276    -0.18400
C949        C  0.70312873  0.16644515  0.43986290    -0.18400
C950        C  0.83399410  0.29726932  0.43987630    -0.18400
H951        H  0.74028259  0.32954612  0.61751598     0.14500
H952        H  0.67080767  0.26010755  0.61750661     0.14500
H953        H  0.82939499  0.24050596  0.38275477     0.14500
H954        H  0.75990243  0.17105375  0.38273905     0.14500
H955        H  0.87622553  0.39588785  0.53305345     0.12800
H956        H  0.89556262  0.37657272  0.46696042     0.12800
H957        H  0.60441207  0.12425809  0.53300306     0.12800
H958        H  0.62377344  0.10491279  0.46693043     0.12800
H959        H  0.74829804  0.25207873  0.53310975     0.26100
H960        H  0.75175308  0.24866256  0.46690740     0.26100
N961        N  0.49682669  0.30372674  0.50125516    -0.36700
N962        N  0.52740563  0.26405993  0.55368871    -0.57200
N963        N  0.00274317  0.19701653  0.49830593    -0.36700
N964        N  0.97259063  0.23688102  0.44555641    -0.57200
C965        C  0.51747346  0.33505746  0.52623230     0.26900
C966        C  0.98416154  0.31838883  0.47212699     0.26900
C967        C  0.51675890  0.18285879  0.52673992     0.26900
C968        C  0.98328738  0.16611970  0.47269977     0.26900
C969        C  0.54121343  0.29997763  0.57276353     0.35500
C970        C  0.54261738  0.24278327  0.57198172     0.35500
C971        C  0.95647128  0.25766422  0.42788252     0.35500
C972        C  0.95767626  0.20041437  0.42718633     0.35500
C973        C  0.51693386  0.36975601  0.51306947    -0.22000
C974        C  0.99574569  0.35914575  0.47912856    -0.22000
C975        C  0.50712271  0.14281635  0.51864063    -0.22000
C976        C  0.98581216  0.13215576  0.48475242    -0.22000
C977        C  0.56456603  0.30095177  0.60395499    -0.23000
C978        C  0.56554926  0.26501438  0.60337990    -0.23000
C979        C  0.93197010  0.23466197  0.39751916    -0.23000
C980        C  0.93281257  0.19865869  0.39700004    -0.23000
C981        C  0.53739604  0.33394755  0.56032544    -0.18400
C982        C  0.96155943  0.29607562  0.43968476    -0.18400
C983        C  0.96234854  0.16683293  0.43920795    -0.18400
C984        C  0.53848402  0.20485723  0.55970567    -0.18400
H985        H  0.53034332  0.39974122  0.52651170     0.14500
H986        H  0.98999412  0.37932980  0.46132389     0.14500
H987        H  0.51412443  0.12304909  0.53573071     0.14500
H988        H  0.97352980  0.10261043  0.47064297     0.14500
H989        H  0.58104691  0.32567512  0.62420243     0.12800
H990        H  0.58263584  0.25718161  0.62323161     0.12800
H991        H  0.91401851  0.24210889  0.37836908     0.12800
H992        H  0.91535104  0.17339986  0.37749958     0.12800
H993        H  0.49071232  0.27380530  0.50421815     0.26100
H994        H  0.00683273  0.22624405  0.49631828     0.26100
N995        N  0.69604443  0.50307304  0.99854729    -0.36700
N996        N  0.73571179  0.47250129  0.94610285    -0.57200
N997        N  0.80273580  0.49710765  0.00152671    -0.36700
N998        N  0.76294702  0.02731053  0.05424071    -0.57200
C999        C  0.66473107  0.48249986  0.97353261     0.26900
C1000       C  0.68145984  0.01582178  0.02763391     0.26900
C1001       C  0.81693691  0.48320118  0.97303851     0.26900
C1002       C  0.83372505  0.01664936  0.02708698     0.26900
C1003       C  0.69974113  0.45860072  0.92708586     0.35500
C1004       C  0.75693963  0.45720131  0.92786937     0.35500
C1005       C  0.74214015  0.04338208  0.07194913     0.35500
C1006       C  0.79938100  0.04214411  0.07266232     0.35500
C1007       C  0.63007802  0.48317314  0.98662109    -0.22000
C1008       C  0.64074095  0.00435594  0.02056517    -0.22000
C1009       C  0.85704125  0.49298715  0.98105756    -0.22000
C1010       C  0.86773760  0.01424933  0.01496621    -0.22000
C1011       C  0.69868898  0.43510550  0.89598790    -0.23000
C1012       C  0.73463154  0.43412748  0.89656405    -0.23000
C1013       C  0.76509913  0.06777731  0.10238146    -0.23000
C1014       C  0.80109371  0.06691158  0.10291268    -0.23000
C1015       C  0.66580625  0.46249956  0.93948591    -0.18400
C1016       C  0.70376112  0.03836665  0.06010887    -0.18400
C1017       C  0.83298724  0.03752495  0.06061451    -0.18400
C1018       C  0.79491144  0.46141410  0.94010814    -0.18400
H1019       H  0.60011124  0.46983025  0.97314112     0.14500
H1020       H  0.62057951  0.01018120  0.03832580     0.14500
H1021       H  0.87684553  0.48608453  0.96391507     0.14500
H1022       H  0.89731541  0.02659960  0.02903577     0.14500
H1023       H  0.67391161  0.41853217  0.87580889     0.12800
H1024       H  0.74242303  0.41695525  0.87678197     0.12800
H1025       H  0.75763583  0.08568057  0.12157129     0.12800
H1026       H  0.82632241  0.08430428  0.12246370     0.12800
H1027       H  0.72592784  0.50905918  0.99564602     0.26100
H1028       H  0.77344479  0.49285308  0.00359135     0.26100
N1029       N  0.69651521  0.00323175  0.50143904    -0.36700
N1030       N  0.76351062  0.02777497  0.44596014    -0.57200
N1031       N  0.80317753  0.99720494  0.49844893    -0.36700
N1032       N  0.73629059  0.47282803  0.55405524    -0.57200
C1033       C  0.68219622  0.01683656  0.47279035     0.26900
C1034       C  0.66551724  0.48343910  0.52688620     0.26900
C1035       C  0.83445689  0.01764563  0.47336758     0.26900
C1036       C  0.81771641  0.48413427  0.52738334     0.26900
C1037       C  0.74237815  0.04324556  0.42782913     0.35500
C1038       C  0.79962683  0.04195840  0.42711719     0.35500
C1039       C  0.69998564  0.45826305  0.57265447     0.35500
C1040       C  0.75715032  0.45686916  0.57186226     0.35500
C1041       C  0.64193046  0.00663571  0.48058044    -0.22000
C1042       C  0.63133142  0.48539948  0.51452107    -0.22000
C1043       C  0.86897541  0.01659777  0.48625900    -0.22000
C1044       C  0.85833117  0.49528099  0.52014236    -0.22000
C1045       C  0.76486805  0.06667893  0.39674386    -0.23000
C1046       C  0.80085259  0.06578195  0.39621696    -0.23000
C1047       C  0.69839276  0.43375298  0.60309838    -0.23000
C1048       C  0.73432998  0.43277703  0.60251094    -0.23000
C1049       C  0.70429188  0.03881504  0.43996164    -0.18400
C1050       C  0.66633624  0.46278247  0.56055717    -0.18400
C1051       C  0.79543737  0.46169885  0.55993182    -0.18400
C1052       C  0.83349269  0.03791416  0.43946733    -0.18400
H1053       H  0.62203139  0.01326528  0.46327955     0.14500
H1054       H  0.60165895  0.47281759  0.52845998     0.14500
H1055       H  0.89889595  0.02980119  0.47269480     0.14500
H1056       H  0.87840317  0.48919873  0.53776935     0.14500
H1057       H  0.75715390  0.08402701  0.37709437     0.12800
H1058       H  0.82576497  0.08260618  0.37621244     0.12800
H1059       H  0.67327163  0.41658435  0.62282298     0.12800
H1060       H  0.74183878  0.41500355  0.62182841     0.12800
H1061       H  0.72596856  0.00792301  0.50371563     0.26100
H1062       H  0.77340903  0.99158493  0.49570904     0.26100
O1063       O  0.97478177  0.08311725  0.24986570    -0.71800
O1064       O  0.91603336  0.14188243  0.24986650    -0.72100
O1065       O  0.94537561  0.11271273  0.30403727    -0.71900
O1066       O  0.94523687  0.11258636  0.19568835    -0.71900
O1067       O  0.88713356  0.05449505  0.19578808    -0.71900
O1068       O  0.88727198  0.05462158  0.30413667    -0.71900
O1069       O  0.85797995  0.08384098  0.24996099    -0.71800
O1070       O  0.91672470  0.02507227  0.24995894    -0.72000
V1071       V  0.94429274  0.11136385  0.24986587     1.35200
V1072       V  0.88848861  0.05557168  0.24995965     1.35200
C1073       C  0.95577199  0.04407319  0.24991278     0.77400
C1074       C  0.87697939  0.12289153  0.24991393     0.77500
C1075       C  0.91581215  0.08422517  0.32245954     0.77300
C1076       C  0.91562527  0.08405443  0.17736537     0.77300
C1077       C  0.85425251  0.20884998  0.24991739     0.80200
N1078       N  0.87503372  0.18771518  0.24992021    -0.78100
C1079       C  0.85417462  0.14569898  0.24991299     0.82600
N1080       N  0.81215488  0.12484256  0.24990327    -0.78100
C1081       C  0.79101745  0.14562071  0.24990106     0.82700
N1082       N  0.81226387  0.18760517  0.24990810    -0.79800
O1083       O  0.60735289  0.02518700  0.25006612    -0.71800
O1084       O  0.72509913  0.08379713  0.24996352    -0.72100
O1085       O  0.66660240  0.05471684  0.30425850    -0.71900
O1086       O  0.66648465  0.05458435  0.19579202    -0.71900
O1087       O  0.66676855  0.11267854  0.19575580    -0.71900
O1088       O  0.66689700  0.11281534  0.30418076    -0.71900
O1089       O  0.72540940  0.14186457  0.24990360    -0.71800
O1090       O  0.60764177  0.08324336  0.25001638    -0.72000
V1091       V  0.66622542  0.05562671  0.25002160     1.35200
V1092       V  0.66652063  0.11143580  0.24996716     1.35200
C1093       C  0.58741080  0.04420083  0.25002988     0.77400
C1094       C  0.74534016  0.12283337  0.24991819     0.77500
C1095       C  0.66793419  0.08437778  0.32261612     0.77300
C1096       C  0.66773570  0.08418118  0.17737697     0.77300
O1097       O  0.97467431  0.39250352  0.24975966    -0.71800
O1098       O  0.91607802  0.27476674  0.24985336    -0.72100
O1099       O  0.94513539  0.33326619  0.19556312    -0.71900
O1100       O  0.94529582  0.33336485  0.30402720    -0.71900
O1101       O  0.88718700  0.33306286  0.30407519    -0.71900
O1102       O  0.88702882  0.33296666  0.19565509    -0.71900
O1103       O  0.85799998  0.27444612  0.24991989    -0.71800
O1104       O  0.91660691  0.39220292  0.24982635    -0.72000
V1105       V  0.94424096  0.33363511  0.24979928     1.35200
V1106       V  0.88842105  0.33332877  0.24986590     1.35200
C1107       C  0.95565299  0.41243856  0.24980718     0.77400
C1108       C  0.87703833  0.25452259  0.24990077     0.77500
C1109       C  0.91546372  0.33193264  0.17721375     0.77300
C1110       C  0.91569414  0.33209769  0.32244685     0.77300
C1111       C  0.91284934  0.08672052  0.13585458     0.80200
N1112       N  0.87837313  0.05824846  0.11723357    -0.78100
C1113       C  0.87285082  0.06375472  0.07983524     0.82600
N1114       N  0.90126801  0.09810868  0.06150826    -0.78100
C1115       C  0.93565513  0.12660143  0.07973427     0.82700
N1116       N  0.94129289  0.12112967  0.11711438    -0.79800
C1117       C  0.91263875  0.32644128  0.13563830     0.80200
N1118       N  0.94093299  0.32038736  0.11685108    -0.78100
C1119       C  0.93555349  0.30993301  0.07928433     0.82600
N1120       N  0.90164699  0.30490877  0.06087904    -0.78100
C1121       C  0.87317684  0.31054439  0.07931784     0.82700
N1122       N  0.87836202  0.32077772  0.11693055    -0.79800
C1123       C  0.67302093  0.08683359  0.13578434     0.80200
N1124       N  0.67900803  0.05848424  0.11703743    -0.78100
C1125       C  0.68919625  0.06367432  0.07940541     0.82600
N1126       N  0.69414834  0.09751304  0.06091789    -0.78100
C1127       C  0.68863626  0.12606982  0.07933540     0.82700
N1128       N  0.67857866  0.12102345  0.11699036    -0.79800
C1129       C  0.91304825  0.32679809  0.36403588     0.80200
N1130       N  0.87884631  0.32120566  0.38283275    -0.78100
C1131       C  0.87381397  0.31114118  0.42048633     0.82600
N1132       N  0.90239776  0.30566117  0.43889967    -0.78100
C1133       C  0.93624768  0.31064751  0.42040810     0.82700
N1134       N  0.94142125  0.32083528  0.38277625    -0.79800
C1135       C  0.91315319  0.08699361  0.36397025     0.80200
N1136       N  0.87875012  0.05854316  0.38271397    -0.78100
C1137       C  0.87329606  0.06416089  0.42010188     0.82600
N1138       N  0.90179339  0.09854029  0.43832995    -0.78100
C1139       C  0.93613330  0.12697167  0.41999387     0.82700
N1140       N  0.94162601  0.12146634  0.38259028    -0.79800
C1141       C  0.67342167  0.08718362  0.36419510     0.80200
N1142       N  0.67908282  0.12144841  0.38291342    -0.78100
C1143       C  0.68930765  0.12661372  0.42052986     0.82600
N1144       N  0.69492684  0.09813067  0.43896462    -0.78100
C1145       C  0.68990144  0.06423442  0.42055197     0.82700
N1146       N  0.67947095  0.05888185  0.38297735    -0.79800
C1147       C  0.97856395  0.02127845  0.24991449     0.80200
N1148       N  0.52057893  0.04214217  0.24996898    -0.78100
C1149       C  0.54172142  0.02137550  0.24998012     0.82600
N1150       N  0.52047360  0.47937868  0.24993158    -0.78100
C1151       C  0.97847473  0.45812537  0.24986186     0.82700
N1152       N  0.95770222  0.47926339  0.24986563    -0.79800
C1153       C  0.52065592  0.97917803  0.74991034     0.80200
N1154       N  0.97864022  0.95831439  0.74995933    -0.78100
C1155       C  0.95749657  0.97908097  0.74997218     0.82600
N1156       N  0.97874974  0.52107421  0.74993951    -0.78100
C1157       C  0.52074746  0.54232434  0.74987854     0.82700
N1158       N  0.54151869  0.52118466  0.74986982    -0.79800
O1159       O  0.52444268  0.91733806  0.74987503    -0.71800
O1160       O  0.58318765  0.85856732  0.74989084    -0.72100
O1161       O  0.55387279  0.88775718  0.80406727    -0.71900
O1162       O  0.55397351  0.88784556  0.69569591    -0.71900
O1163       O  0.61207158  0.94593871  0.69574272    -0.71900
O1164       O  0.61198037  0.94584108  0.80411116    -0.71900
O1165       O  0.64124217  0.91660712  0.74992719    -0.71800
O1166       O  0.58249942  0.97538192  0.74992693    -0.72000
V1167       V  0.55493212  0.88908937  0.74988321     1.35200
V1168       V  0.61073584  0.94487911  0.74992579     1.35200
C1169       C  0.54345131  0.95638245  0.74990309     0.77400
C1170       C  0.62224130  0.87755638  0.74990842     0.77500
C1171       C  0.58345304  0.91624020  0.82246737     0.77300
C1172       C  0.58358651  0.91636289  0.67734136     0.77300
C1173       C  0.64504455  0.85474727  0.74990484     0.80200
N1174       N  0.68706413  0.87560337  0.74991171    -0.78100
C1175       C  0.70820192  0.85482558  0.74991038     0.82600
N1176       N  0.68695575  0.81284115  0.74989838    -0.78100
C1177       C  0.64496709  0.79159606  0.74988841     0.82700
N1178       N  0.62418538  0.81273085  0.74989364    -0.79800
O1179       O  0.58261344  0.60824203  0.74984964    -0.71800
O1180       O  0.64121981  0.72599819  0.74988118    -0.72100
O1181       O  0.61205030  0.66737696  0.80404933    -0.71900
O1182       O  0.61218244  0.66745530  0.69567137    -0.71900
O1183       O  0.55408368  0.66717331  0.69556409    -0.71900
O1184       O  0.55394707  0.66708747  0.80404994    -0.71900
O1185       O  0.58314271  0.72567966  0.74983368    -0.71800
O1186       O  0.52454726  0.60794463  0.74979805    -0.72000
V1187       V  0.61079976  0.66711304  0.74986050     1.35200
V1188       V  0.55498181  0.66681199  0.74981023     1.35200
C1189       C  0.54356810  0.58800901  0.74983631     0.77400
C1190       C  0.62218189  0.74592300  0.74986772     0.77500
C1191       C  0.58355914  0.66834299  0.82244269     0.77300
C1192       C  0.58374878  0.66847147  0.67722396     0.77300
O1193       O  0.89158122  0.91721496  0.75002332    -0.71800
O1194       O  0.77381420  0.85858632  0.74995290    -0.72100
O1195       O  0.83246188  0.88773907  0.69580381    -0.71900
O1196       O  0.83234931  0.88767001  0.80418492    -0.71900
O1197       O  0.83261855  0.94575691  0.80423731    -0.71900
O1198       O  0.83273208  0.94582723  0.69575095    -0.71900
O1199       O  0.77411769  0.91665049  0.74995004    -0.71800
O1200       O  0.89186377  0.97526847  0.75002005    -0.72000
V1201       V  0.83270572  0.88901856  0.74999339     1.35200
V1202       V  0.83299142  0.94482362  0.74999135     1.35200
C1203       C  0.91180835  0.95625671  0.75001245     0.77400
C1204       C  0.75387972  0.87761454  0.74993657     0.77500
C1205       C  0.83149856  0.91621689  0.67738332     0.77300
C1206       C  0.83132681  0.91611063  0.82260559     0.77300
C1207       C  0.82623512  0.91349152  0.63579760     0.80200
N1208       N  0.82017792  0.94175025  0.61695857    -0.78100
C1209       C  0.80996155  0.93643925  0.57933728     0.82600
N1210       N  0.80507946  0.90258245  0.56094863    -0.78100
C1211       C  0.81068603  0.87412547  0.57946012     0.82700
N1212       N  0.82075950  0.87928983  0.61710390    -0.79800
C1213       C  0.58638708  0.91365262  0.63582412     0.80200
N1214       N  0.55795408  0.87922219  0.61710565    -0.78100
C1215       C  0.56364339  0.87370729  0.57974503     0.82600
N1216       N  0.59806311  0.90216797  0.56153192    -0.78100
C1217       C  0.62645432  0.93654442  0.57981805     0.82700
N1218       N  0.62088495  0.94210657  0.61719090    -0.79800
C1219       C  0.58615367  0.91345844  0.86398757     0.80200
N1220       N  0.62057816  0.94190212  0.88270891    -0.78100
C1221       C  0.62607660  0.93624015  0.92008280     0.82600
N1222       N  0.59760898  0.90183359  0.93830558    -0.78100
C1223       C  0.56324419  0.87342713  0.92001193     0.82700
N1224       N  0.55769664  0.87897084  0.88262764    -0.79800
C1225       C  0.82589566  0.91327424  0.86418297     0.80200
N1226       N  0.81979850  0.94150133  0.88303130    -0.78100
C1227       C  0.80933529  0.93602884  0.92060355     0.82600
N1228       N  0.80435035  0.90210007  0.93894577    -0.78100
C1229       C  0.81005190  0.87370975  0.92044179     0.82700
N1230       N  0.82030255  0.87899619  0.88283542    -0.79800
C1231       C  0.58661333  0.67390839  0.63564880     0.80200
N1232       N  0.62089674  0.67948671  0.61701478    -0.78100
C1233       C  0.62620294  0.68974317  0.57940851     0.82600
N1234       N  0.59783490  0.69547798  0.56089179    -0.78100
C1235       C  0.56390553  0.69051392  0.57921974     0.82700
N1236       N  0.55840540  0.68002848  0.61678534    -0.79800
C1237       C  0.58627545  0.67363186  0.86402467     0.80200
N1238       N  0.62048867  0.67914114  0.88273103    -0.78100
C1239       C  0.62564220  0.68922294  0.92037075     0.82600
N1240       N  0.59715884  0.69479601  0.93886866    -0.78100
C1241       C  0.56329041  0.68988144  0.92046827     0.82700
N1242       N  0.55799475  0.67966925  0.88284614    -0.79800
N1243       N  0.73682055  0.76249905  0.94513440    -0.36700
N1244       N  0.69419267  0.69461498  0.99979843    -0.57200
N1245       N  0.76202981  0.73722005  0.05448864    -0.36700
N1246       N  0.80467077  0.80509074  0.99981728    -0.57200
C1247       C  0.69897352  0.74199475  0.92868056     0.26900
C1248       C  0.75732655  0.80035831  0.92869402     0.26900
C1249       C  0.74154465  0.69933652  0.07088400     0.26900
C1250       C  0.79990757  0.75768326  0.07088844     0.26900
C1251       C  0.66472405  0.68086272  0.97257264     0.35500
C1252       C  0.68037886  0.66517189  0.02706098     0.35500
C1253       C  0.81843214  0.83458112  0.97260013     0.35500
C1254       C  0.83410761  0.81887312  0.02707668     0.35500
C1255       C  0.69635600  0.76645397  0.90030794    -0.22000
C1256       C  0.73288669  0.80298854  0.90031473    -0.22000
C1257       C  0.76604703  0.69663673  0.09915732    -0.22000
C1258       C  0.80258264  0.73316606  0.09916208    -0.22000
C1259       C  0.63201268  0.64254029  0.98263653    -0.23000
C1260       C  0.64200526  0.63252502  0.01704755    -0.23000
C1261       C  0.85675446  0.86727977  0.98266852    -0.23000
C1262       C  0.86676404  0.85724936  0.01706717    -0.23000
C1263       C  0.66549191  0.70298904  0.93965497    -0.18400
C1264       C  0.79631494  0.83383960  0.93968572    -0.18400
C1265       C  0.83335052  0.79673403  0.05998350    -0.18400
C1266       C  0.70248582  0.66591344  0.05997669    -0.18400
H1267       H  0.67023229  0.75966260  0.88233050     0.17300
H1268       H  0.73969174  0.82912307  0.88234066     0.14500
H1269       H  0.75927039  0.67046565  0.11706716     0.14500
H1270       H  0.82874385  0.73993624  0.11707904     0.14500
H1271       H  0.60383965  0.62374154  0.96681604     0.12800
H1272       H  0.62315289  0.60438627  0.03290685     0.12800
H1273       H  0.87555825  0.89546574  0.96685632     0.12800
H1274       H  0.89490342  0.87607936  0.03292278     0.12800
H1275       H  0.74768529  0.75162463  0.96675837     0.26100
H1276       H  0.75110893  0.74815657  0.03296299     0.26100
N1277       N  0.99661705  0.80337919  0.99840076    -0.36700
N1278       N  0.52693777  0.76360894  0.94574515    -0.57200
N1279       N  0.00257124  0.69668175  0.00135020    -0.36700
N1280       N  0.97203455  0.73635809  0.05384232    -0.57200
C1281       C  0.51631655  0.83437800  0.97291433     0.26900
C1282       C  0.98292185  0.81765784  0.02700131     0.26900
C1283       C  0.51553700  0.68214275  0.97236705     0.26900
C1284       C  0.98206621  0.66538324  0.02639940     0.26900
C1285       C  0.54159709  0.79995947  0.92720749     0.35500
C1286       C  0.54293580  0.74277264  0.92796808     0.35500
C1287       C  0.95666574  0.75754240  0.07203950     0.35500
C1288       C  0.95794421  0.70028986  0.07274437     0.35500
C1289       C  0.51423226  0.86851149  0.98521060    -0.22000
C1290       C  0.99298179  0.85786723  0.01913379    -0.22000
C1291       C  0.50427684  0.64149145  0.97954569    -0.22000
C1292       C  0.98297808  0.63082035  0.01343697    -0.22000
C1293       C  0.56620440  0.80160300  0.89683157    -0.23000
C1294       C  0.56714112  0.76564880  0.89739689    -0.23000
C1295       C  0.93338733  0.73512859  0.10322396    -0.23000
C1296       C  0.93428053  0.69914462  0.10374651    -0.23000
C1297       C  0.53702825  0.83358300  0.93927940    -0.18400
C1298       C  0.96101265  0.79558399  0.05986736    -0.18400
C1299       C  0.96188895  0.66638345  0.06034924    -0.18400
C1300       C  0.53802243  0.70444278  0.93985084    -0.18400
H1301       H  0.52674425  0.89815525  0.97123129     0.14500
H1302       H  0.98626772  0.87773234  0.03638697     0.14500
H1303       H  0.51028023  0.62139770  0.96187526     0.14500
H1304       H  0.96971458  0.60088078  0.02696863     0.14500
H1305       H  0.58345267  0.82676327  0.87716545     0.12800
H1306       H  0.58495736  0.75815756  0.87811888     0.12800
H1307       H  0.91613768  0.74288641  0.12294903     0.12800
H1308       H  0.91755150  0.67428520  0.12382308     0.12800
H1309       H  0.99207221  0.77398325  0.99619424     0.26100
H1310       H  0.00832454  0.72648852  0.00415128     0.26100
N1311       N  0.73742764  0.76294551  0.55472888    -0.36700
N1312       N  0.80529640  0.80557721  0.50005084    -0.57200
N1313       N  0.76267363  0.73774376  0.44536732    -0.36700
N1314       N  0.69481868  0.69509912  0.50005073    -0.57200
C1315       C  0.75792884  0.80079455  0.57117041     0.26900
C1316       C  0.69956416  0.74244518  0.57116544     0.26900
C1317       C  0.80055214  0.75823424  0.42895922     0.26900
C1318       C  0.74220019  0.69987464  0.42896091     0.26900
C1319       C  0.81905962  0.83503967  0.52727788     0.35500
C1320       C  0.83473728  0.81938800  0.47278638     0.35500
C1321       C  0.66533552  0.68133711  0.52727484     0.35500
C1322       C  0.68102760  0.66566430  0.47279409     0.35500
C1323       C  0.73346479  0.80341690  0.59953238    -0.22000
C1324       C  0.69693047  0.76688906  0.59953100    -0.22000
C1325       C  0.80323900  0.73374317  0.40067295    -0.22000
C1326       C  0.76670667  0.69721001  0.40067180    -0.22000
C1327       C  0.85738676  0.86774414  0.51721389    -0.23000
C1328       C  0.86739423  0.85775353  0.48280099    -0.23000
C1329       C  0.63263383  0.64301566  0.51721505    -0.23000
C1330       C  0.64265449  0.63300699  0.48281419    -0.23000
C1331       C  0.79693417  0.83427525  0.56019260    -0.18400
C1332       C  0.66607915  0.70345953  0.56018063    -0.18400
C1333       C  0.70315080  0.66643067  0.43987320    -0.18400
C1334       C  0.83398230  0.79728793  0.43986506    -0.18400
H1335       H  0.74025077  0.82954225  0.61749811     0.14500
H1336       H  0.67079240  0.76008876  0.61749844     0.14500
H1337       H  0.82940358  0.74052585  0.38275091     0.14500
H1338       H  0.75992900  0.67105762  0.38274615     0.14500
H1339       H  0.87619228  0.89591159  0.53303516     0.12800
H1340       H  0.89553386  0.87660297  0.46694054     0.12800
H1341       H  0.60444992  0.62421438  0.53303234     0.12800
H1342       H  0.62381747  0.60487067  0.46696151     0.12800
H1343       H  0.74830486  0.75207648  0.53311416     0.26100
H1344       H  0.75174745  0.74865630  0.46690522     0.26100
N1345       N  0.49679834  0.80371559  0.50126836    -0.36700
N1346       N  0.52740945  0.76406282  0.55368792    -0.57200
N1347       N  0.00277308  0.69703241  0.49829649    -0.36700
N1348       N  0.97258761  0.73688193  0.44556222    -0.57200
C1349       C  0.51742682  0.83504084  0.52625440     0.26900
C1350       C  0.98411468  0.81837072  0.47214916     0.26900
C1351       C  0.51680360  0.68288135  0.52672358     0.26900
C1352       C  0.98333124  0.66614022  0.47268360     0.26900
C1353       C  0.54120559  0.79997714  0.57276620     0.35500
C1354       C  0.54263574  0.74279567  0.57197563     0.35500
C1355       C  0.95645876  0.75765806  0.42789044     0.35500
C1356       C  0.95768866  0.70042017  0.42718605     0.35500
C1357       C  0.51685409  0.86972781  0.51310885    -0.22000
C1358       C  0.99566636  0.85911682  0.47916770    -0.22000
C1359       C  0.50719269  0.64284891  0.51861112    -0.22000
C1360       C  0.98588275  0.63218742  0.48472266    -0.22000
C1361       C  0.56456613  0.80095864  0.60395363    -0.23000
C1362       C  0.56556557  0.76502968  0.60337317    -0.23000
C1363       C  0.93196676  0.73465589  0.39752282    -0.23000
C1364       C  0.93282447  0.69866056  0.39699902    -0.23000
C1365       C  0.53736721  0.83393808  0.56033756    -0.18400
C1366       C  0.96152958  0.79606196  0.43969743    -0.18400
C1367       C  0.96237735  0.66684589  0.43920008    -0.18400
C1368       C  0.53851592  0.70487558  0.55969648    -0.18400
H1369       H  0.53024360  0.89970629  0.52656185     0.14500
H1370       H  0.98989523  0.87929450  0.46137362     0.14500
H1371       H  0.51420928  0.62308724  0.53569323     0.14500
H1372       H  0.97361613  0.60264807  0.47060505     0.14500
H1373       H  0.58104018  0.82568156  0.62420302     0.12800
H1374       H  0.58266159  0.75720468  0.62322076     0.12800
H1375       H  0.91401077  0.74209694  0.37837275     0.12800
H1376       H  0.91537387  0.67340417  0.37749310     0.12800
H1377       H  0.49071328  0.77380318  0.50421812     0.26100
H1378       H  0.00683934  0.72625106  0.49631921     0.26100
N1379       N  0.69608962  0.00307527  0.99854814    -0.36700
N1380       N  0.73575976  0.97250110  0.94610511    -0.57200
N1381       N  0.80279395  0.99711483  0.00152052    -0.36700
N1382       N  0.76290031  0.52731474  0.05423914    -0.57200
C1383       C  0.66477612  0.98249584  0.97353615     0.26900
C1384       C  0.68141632  0.51583080  0.02762662     0.26900
C1385       C  0.81698566  0.98319094  0.97304063     0.26900
C1386       C  0.83367553  0.51665838  0.02708413     0.26900
C1387       C  0.69979449  0.95861303  0.92708115     0.35500
C1388       C  0.75699258  0.95721067  0.92786424     0.35500
C1389       C  0.74208761  0.54337627  0.07195299     0.35500
C1390       C  0.79932646  0.54213399  0.07267125     0.35500
C1391       C  0.63012097  0.98315837  0.98663147    -0.22000
C1392       C  0.64069925  0.50437496  0.02055224    -0.22000
C1393       C  0.85707809  0.99294979  0.98107482    -0.22000
C1394       C  0.86769996  0.51428493  0.01494873    -0.22000
C1395       C  0.69875005  0.93513451  0.89597255    -0.23000
C1396       C  0.73469131  0.93415384  0.89654860    -0.23000
C1397       C  0.76503632  0.56775248  0.10239932    -0.23000
C1398       C  0.80102943  0.56688306  0.10293398    -0.23000
C1399       C  0.66585658  0.96250503  0.93948440    -0.18400
C1400       C  0.70371351  0.53837007  0.06010573    -0.18400
C1401       C  0.83293772  0.53752568  0.06061836    -0.18400
C1402       C  0.79495994  0.96141327  0.94010612    -0.18400
H1403       H  0.60015285  0.96981256  0.97315399     0.14500
H1404       H  0.62054006  0.51020760  0.03830856     0.14500
H1405       H  0.87687547  0.98602863  0.96394265     0.14500
H1406       H  0.89728454  0.52665146  0.02900843     0.14500
H1407       H  0.67397831  0.91857363  0.87578533     0.12800
H1408       H  0.74248560  0.91699063  0.87675830     0.12800
H1409       H  0.75756809  0.58564562  0.12159707     0.12800
H1410       H  0.82625122  0.58426184  0.12249547     0.12800
H1411       H  0.72597905  0.00908977  0.99563308     0.26100
H1412       H  0.77351064  0.99287284  0.00357961     0.26100
N1413       N  0.69654658  0.50322122  0.50144087    -0.36700
N1414       N  0.76354277  0.52777192  0.44596471    -0.57200
N1415       N  0.80320807  0.49719717  0.49844774    -0.36700
N1416       N  0.73625315  0.97282577  0.55404674    -0.57200
C1417       C  0.68222792  0.51683110  0.47279597     0.26900
C1418       C  0.66547989  0.98343647  0.52687644     0.26900
C1419       C  0.83449057  0.51764752  0.47337076     0.26900
C1420       C  0.81768354  0.98413745  0.52738259     0.26900
C1421       C  0.74240348  0.54323132  0.42782808     0.35500
C1422       C  0.79965674  0.54195326  0.42711869     0.35500
C1423       C  0.69995060  0.95826640  0.57264882     0.35500
C1424       C  0.75711856  0.95687793  0.57186228     0.35500
C1425       C  0.64196817  0.50664468  0.48059574    -0.22000
C1426       C  0.63128983  0.98538474  0.51450297    -0.22000
C1427       C  0.86901192  0.51660775  0.48626571    -0.22000
C1428       C  0.85829531  0.99527472  0.52013756    -0.22000
C1429       C  0.76488728  0.56665609  0.39673670    -0.23000
C1430       C  0.80087501  0.56576555  0.39621190    -0.23000
C1431       C  0.69836400  0.93376896  0.60310156    -0.23000
C1432       C  0.73430381  0.93279775  0.60251854    -0.23000
C1433       C  0.70431850  0.53880208  0.43996227    -0.18400
C1434       C  0.66629891  0.96278115  0.56054871    -0.18400
C1435       C  0.79540455  0.96170465  0.55993203    -0.18400
C1436       C  0.83352627  0.53791662  0.43947078    -0.18400
H1437       H  0.62207069  0.51328118  0.46330017     0.14500
H1438       H  0.60161193  0.97279055  0.52843386     0.14500
H1439       H  0.89893510  0.52981952  0.47270541     0.14500
H1440       H  0.87836534  0.98918747  0.53776233     0.14500
H1441       H  0.75716748  0.58399492  0.37708128     0.12800
H1442       H  0.82578353  0.58258586  0.37620297     0.12800
H1443       H  0.67324661  0.91660694  0.62283129     0.12800
H1444       H  0.74181831  0.91503565  0.62184490     0.12800
H1445       H  0.72599484  0.50789887  0.50370981     0.26100
H1446       H  0.77343648  0.49156752  0.49570475     0.26100
O1447       O  0.97478270  0.58311469  0.24986226    -0.71800
O1448       O  0.91603792  0.64188446  0.24984844    -0.72100
O1449       O  0.94538391  0.61272380  0.30402666    -0.71900
O1450       O  0.94523184  0.61257316  0.19567592    -0.71900
O1451       O  0.88711989  0.55449083  0.19578739    -0.71900
O1452       O  0.88728669  0.55462641  0.30413635    -0.71900
O1453       O  0.85798350  0.58384421  0.24996742    -0.71800
O1454       O  0.91672509  0.52507059  0.24995284    -0.72000
V1455       V  0.94429499  0.61136317  0.24985479     1.35200
V1456       V  0.88848996  0.55557222  0.24995921     1.35200
C1457       C  0.95577268  0.54407056  0.24991073     0.77400
C1458       C  0.87698402  0.62289493  0.24990641     0.77500
C1459       C  0.91582789  0.58423394  0.32245439     0.77300
C1460       C  0.91561052  0.58404481  0.17735849     0.77300
C1461       C  0.85425639  0.70885375  0.24990541     0.80200
N1462       N  0.87503847  0.68771960  0.24990896    -0.78100
C1463       C  0.85417978  0.64570324  0.24990121     0.82600
N1464       N  0.81216004  0.62484652  0.24988926    -0.78100
C1465       C  0.79102201  0.64562396  0.24988566     0.82700
N1466       N  0.81226780  0.68760834  0.24989419    -0.79800
O1467       O  0.60735762  0.52518664  0.25008018    -0.71800
O1468       O  0.72510441  0.58379949  0.24994538    -0.72100
O1469       O  0.66662594  0.55471608  0.30425712    -0.71900
O1470       O  0.66647059  0.55458691  0.19579113    -0.71900
O1471       O  0.66676119  0.61268455  0.19576823    -0.71900
O1472       O  0.66691045  0.61280957  0.30419177    -0.71900
O1473       O  0.72541304  0.64186614  0.24990597    -0.71800
O1474       O  0.60764508  0.58324223  0.25003608    -0.72000
V1475       V  0.66623045  0.55562765  0.25002043     1.35200
V1476       V  0.66652411  0.61143599  0.24997853     1.35200
C1477       C  0.58741459  0.54419964  0.25004786     0.77400
C1478       C  0.74534465  0.62283575  0.24990695     0.77500
C1479       C  0.66795670  0.58437327  0.32262065     0.77300
C1480       C  0.66771833  0.58418582  0.17738283     0.77300
O1481       O  0.97467179  0.89250767  0.24975912    -0.71800
O1482       O  0.91608031  0.77477166  0.24984499    -0.72100
O1483       O  0.94513977  0.83327548  0.19556021    -0.71900
O1484       O  0.94529154  0.83336406  0.30402455    -0.71900
O1485       O  0.88718462  0.83306572  0.30406986    -0.71900
O1486       O  0.88702871  0.83296700  0.19564893    -0.71900
O1487       O  0.85800093  0.77444836  0.24991480    -0.71800
O1488       O  0.91660339  0.89220514  0.24981933    -0.72000
V1489       V  0.94424086  0.83363964  0.24979591     1.35200
V1490       V  0.88841972  0.83333085  0.24986021     1.35200
C1491       C  0.95564950  0.91244159  0.24980221     0.77400
C1492       C  0.87704074  0.75452624  0.24989241     0.77500
C1493       C  0.91546691  0.83193712  0.17720927     0.77300
C1494       C  0.91568921  0.83209706  0.32244314     0.77300
C1495       C  0.91282177  0.58671099  0.13584785     0.80200
N1496       N  0.87833358  0.55824798  0.11723435    -0.78100
C1497       C  0.87280260  0.56375766  0.07983857     0.82600
N1498       N  0.90122374  0.59810633  0.06150712    -0.78100
C1499       C  0.93562263  0.62658965  0.07972500     0.82700
N1500       N  0.94126888  0.62111419  0.11710226    -0.79800
C1501       C  0.91264562  0.82644447  0.13563413     0.80200
N1502       N  0.94094682  0.82039863  0.11685011    -0.78100
C1503       C  0.93557291  0.80994445  0.07928333     0.82600
N1504       N  0.90166421  0.80491056  0.06087527    -0.78100
C1505       C  0.87318686  0.81053703  0.07931130     0.82700
N1506       N  0.87836715  0.82077160  0.11692361    -0.79800
C1507       C  0.67299144  0.58683979  0.13579014     0.80200
N1508       N  0.67896341  0.55848493  0.11703588    -0.78100
C1509       C  0.68915123  0.56367839  0.07940421     0.82600
N1510       N  0.69411570  0.59752533  0.06092367    -0.78100
C1511       C  0.68861684  0.62608677  0.07934849     0.82700
N1512       N  0.67856147  0.62103787  0.11700362    -0.79800
C1513       C  0.91303915  0.82679563  0.36403282     0.80200
N1514       N  0.87884223  0.82121986  0.38282750    -0.78100
C1515       C  0.87380544  0.81116031  0.42048223     0.82600
N1516       N  0.90237905  0.80566736  0.43889912    -0.78100
C1517       C  0.93622267  0.81063439  0.42040997     0.82700
N1518       N  0.94140168  0.82081880  0.38277682    -0.79800
C1519       C  0.91317777  0.58700194  0.36396639     0.80200
N1520       N  0.87877959  0.55854887  0.38271437    -0.78100
C1521       C  0.87332917  0.56416600  0.42010336     0.82600
N1522       N  0.90182703  0.59854781  0.43832896    -0.78100
C1523       C  0.93616364  0.62698137  0.41998905     0.82700
N1524       N  0.94165144  0.62147605  0.38258409    -0.79800
C1525       C  0.67344982  0.58717653  0.36419891     0.80200
N1526       N  0.67911130  0.62143985  0.38291993    -0.78100
C1527       C  0.68933670  0.62660277  0.42053598     0.82600
N1528       N  0.69495543  0.59811836  0.43896821    -0.78100
C1529       C  0.68992926  0.56422301  0.42055330     0.82700
N1530       N  0.67949819  0.55887260  0.38297849    -0.79800
C1531       C  0.97856574  0.52127549  0.24991911     0.80200
N1532       N  0.52058111  0.54213957  0.24998004    -0.78100
C1533       C  0.54172456  0.52137351  0.24999651     0.82600
N1534       N  0.52046994  0.97938078  0.24991758    -0.78100
C1535       C  0.97847120  0.95812804  0.24985379     0.82700
N1536       N  0.95769944  0.97926648  0.24986173    -0.79800
loop_ 
_geom_bond_atom_site_label_1 
_geom_bond_atom_site_label_2 
_geom_bond_distance 
_geom_bond_site_symmetry_2 
_ccdc_geom_bond_type 
C1           C17   1.482       .  S
C1          N770   1.362   1_455  A
C1          N390   1.362       .  A
N2            C3   1.362       .  A
N2          C769   1.362       .  A
C3           C51   1.482       .  S
C3          N388   1.362       .  A
N4          C387   1.362   1_545  A
N4          C773   1.362       .  A
C5           C37   1.482       .  S
C5            N6   1.362       .  A
C5          N772   1.362   1_455  A
N6          C385   1.362   1_545  A
O7           V15   1.910       .  S
O7           C17   1.266       .  A
O8           V15   1.911       .  S
O8           C18   1.267       .  A
O9           V15   1.898       .  S
O9           C19   1.264       .  A
O10          V15   1.898       .  S
O10          C20   1.264       .  A
O11          V16   1.898       .  S
O11          C20   1.264       .  A
O12          V16   1.898       .  S
O12          C19   1.264       .  A
O13          V16   1.911       .  S
O13          C18   1.267       .  A
O14          V16   1.910       .  S
O14          C17   1.266       .  A
V15          V16   2.088       .  T
C18          C21   1.483       .  S
C19          C67   1.465       .  S
C20          C61   1.465       .  S
C21          N22   1.363       .  A
C21          N26   1.363       .  A
N22          C23   1.362       .  A
C23          C52   1.481       .  S
C23          N24   1.362       .  A
N24          C25   1.362       .  A
C25          C38   1.481       .  S
C25          N26   1.362       .  A
O27          V35   1.910       .  S
O27          C37   1.266       .  A
O28          V35   1.910       .  S
O28          C38   1.267       .  A
O29          V35   1.898       .  S
O29          C39   1.264       .  A
O30          V35   1.898       .  S
O30          C40   1.264       .  A
O31          V36   1.900       .  S
O31          C40   1.264       .  A
O32          V36   1.900       .  S
O32          C39   1.264       .  A
O33          V36   1.910       .  S
O33          C38   1.266       .  A
O34          V36   1.909       .  S
O34          C37   1.266       .  A
V35          V36   2.088       .  T
C39          C85   1.466       .  S
C40          C79   1.466       .  S
O41          V49   1.910       .  S
O41          C51   1.266       .  A
O42          V49   1.910       .  S
O42          C52   1.267       .  A
O43          V49   1.898       .  S
O43          C53   1.264       .  A
O44          V49   1.898       .  S
O44          C54   1.264       .  A
O45          V50   1.900       .  S
O45          C54   1.264       .  A
O46          V50   1.900       .  S
O46          C53   1.264       .  A
O47          V50   1.910       .  S
O47          C52   1.266       .  A
O48          V50   1.909       .  S
O48          C51   1.266       .  A
V49          V50   2.088       .  T
C53          C55   1.466       .  S
C54          C73   1.466       .  S
C55          N56   1.361       .  A
C55          N60   1.361       .  A
N56          C57   1.358       .  A
C57         C283   1.475       .  S
C57          N58   1.352       .  A
N58          C59   1.352       .  A
C59         C179   1.477       .  S
C59          N60   1.358       .  A
C61          N62   1.361       .  A
C61          N66   1.360       .  A
N62          C63   1.358       .  A
C63         C213   1.477       .  S
C63          N64   1.352       .  A
N64          C65   1.352       .  A
C65         C282   1.476       .  S
C65          N66   1.358       .  A
C67          N68   1.361       .  A
C67          N72   1.360       .  A
N68          C69   1.358       .  A
C69         C247   1.477       .  S
C69          N70   1.352       .  A
N70          C71   1.352       .  A
C71         C145   1.476       .  S
C71          N72   1.358       .  A
C73          N74   1.361       .  A
C73          N78   1.361       .  A
N74          C75   1.359       .  A
C75         C250   1.476       .  S
C75          N76   1.352       .  A
N76          C77   1.352       .  A
C77         C112   1.477       .  S
C77          N78   1.358       .  A
C79          N80   1.361       .  A
C79          N84   1.361       .  A
N80          C81   1.358       .  A
C81         C180   1.477       .  S
C81          N82   1.352       .  A
N82          C83   1.352       .  A
C83         C216   1.476       .  S
C83          N84   1.358       .  A
C85          N86   1.361       .  A
C85          N90   1.361       .  A
N86          C87   1.358       .  A
C87         C111   1.477       .  S
C87          N88   1.352       .  A
N88          C89   1.352       .  A
C89         C148   1.475       .  S
C89          N90   1.358       .  A
N91          C96   1.357       .  A
N91          C95   1.357       .  A
N91         H123   1.036       .  S
N92          C99   1.350       .  A
N92         C100   1.350   1_556  A
N93          C98   1.357       .  A
N93          C97   1.357       .  A
N93         H124   1.036       .  S
N94         C101   1.350       .  A
N94         C102   1.350   1_556  A
C95         C103   1.389       .  A
C95         C111   1.421       .  A
C96         C112   1.421       .  A
C96         C104   1.389       .  A
C97         C105   1.389       .  A
C97         C114   1.421       .  A
C98         C113   1.421       .  A
C98         C106   1.388       .  A
C99         C111   1.412       .  A
C99         C107   1.387       .  A
C100        C114   1.412       .  A
C100        C108   1.387       .  A
C101        C109   1.387       .  A
C101        C112   1.412       .  A
C102        C110   1.387       .  A
C102        C113   1.412       .  A
C103        C104   1.367       .  A
C103        H115   1.082       .  S
C104        H116   1.082       .  S
C105        C106   1.367       .  A
C105        H117   1.082       .  S
C106        H118   1.082       .  S
C107        C108   1.369   1_556  A
C107        H119   1.083       .  S
C108        H120   1.083       .  S
C109        C110   1.369   1_556  A
C109        H121   1.083       .  S
C110        H122   1.083       .  S
C113        C353   1.477       .  S
C114        C359   1.477       .  S
N125        C130   1.353   1_556  A
N125        C897   1.353       .  A
N125        H157   1.030       .  S
N126        C133   1.352       .  A
N126        C134   1.353       .  A
N127        C132   1.353       .  A
N127        C899   1.353   1_554  A
N127        H158   1.031       .  S
N128        C135   1.353       .  A
N128        C136   1.352       .  A
C129        N893   1.353   1_455  A
C129        C137   1.390       .  A
C129        C145   1.419       .  A
C130        C146   1.414       .  A
C130        C138   1.386       .  A
C131        N895   1.353   1_556  A
C131        C139   1.385       .  A
C131        C148   1.413       .  A
C132        C147   1.420       .  A
C132        C140   1.390       .  A
C133        C145   1.420       .  A
C133        C141   1.389       .  A
C134        C148   1.417       .  A
C134        C142   1.387       .  A
C135        C143   1.387       .  A
C135        C146   1.418       .  A
C136        C144   1.389       .  A
C136        C147   1.420       .  A
C137        C906   1.373   1_456  A
C137        H149   1.082       .  S
C138        C905   1.373   1_554  A
C138        H150   1.083       .  S
C139        C908   1.373   1_456  A
C139        H151   1.083       .  S
C140        C907   1.373   1_554  A
C140        H152   1.082       .  S
C141        C142   1.367       .  A
C141        H153   1.081       .  S
C142        H154   1.081       .  S
C143        C144   1.367       .  A
C143        H155   1.081       .  S
C144        H156   1.081       .  S
C146        C351   1.476       .  S
C147        C347   1.477       .  S
N159        C164   1.357       .  A
N159        C163   1.357       .  A
N159        H191   1.036       .  S
N160        C167   1.350       .  A
N160        C168   1.350       .  A
N161        C166   1.357       .  A
N161        C165   1.357       .  A
N161        H192   1.036       .  S
N162        C169   1.350       .  A
N162        C170   1.350       .  A
C163        C171   1.389       .  A
C163        C179   1.421       .  A
C164        C180   1.421       .  A
C164        C172   1.388       .  A
C165        C173   1.389       .  A
C165        C182   1.421       .  A
C166        C181   1.421       .  A
C166        C174   1.388       .  A
C167        C179   1.412       .  A
C167        C175   1.387       .  A
C168        C182   1.412       .  A
C168        C176   1.387       .  A
C169        C177   1.387       .  A
C169        C180   1.412       .  A
C170        C178   1.387       .  A
C170        C181   1.412       .  A
C171        C172   1.367       .  A
C171        H183   1.082       .  S
C172        H184   1.082       .  S
C173        C174   1.367       .  A
C173        H185   1.082       .  S
C174        H186   1.082       .  S
C175        C176   1.369       .  A
C175        H187   1.083       .  S
C176        H188   1.083       .  S
C177        C178   1.369       .  A
C177        H189   1.083       .  S
C178        H190   1.083       .  S
C181        C375   1.477       .  S
C182        C363   1.477       .  S
N193        C197   1.353   1_655  A
N193        C966   1.353       .  A
N193        H225   1.032       .  S
N194        C201   1.352       .  A
N194        C202   1.353       .  A
N195        C200   1.353       .  A
N195        C967   1.353       .  A
N195        H226   1.030       .  S
N196        C203   1.352       .  A
N196        C204   1.352       .  A
C197        C205   1.390       .  A
C197        C213   1.420       .  A
C198        N961   1.353       .  A
C198        C214   1.413       .  A
C198        C206   1.385       .  A
C199        N963   1.353       .  A
C199        C207   1.386       .  A
C199        C216   1.415       .  A
C200        C215   1.419       .  A
C200        C208   1.389       .  A
C201        C213   1.420       .  A
C201        C209   1.389       .  A
C202        C216   1.418       .  A
C202        C210   1.387       .  A
C203        C211   1.387       .  A
C203        C214   1.417       .  A
C204        C212   1.389       .  A
C204        C215   1.420       .  A
C205        C974   1.373   1_455  A
C205        H217   1.082       .  S
C206        C973   1.373       .  A
C206        H218   1.083       .  S
C207        C976   1.373   1_455  A
C207        H219   1.083       .  S
C208        C975   1.373       .  A
C208        H220   1.082       .  S
C209        C210   1.367       .  A
C209        H221   1.081       .  S
C210        H222   1.081       .  S
C211        C212   1.367       .  A
C211        H223   1.082       .  S
C212        H224   1.081       .  S
C214        C365   1.475       .  S
C215        C371   1.476       .  S
N227        C231   1.353       .  A
N227        C616   1.353   1_556  A
N227        H259   1.031       .  S
N228        C235   1.352       .  A
N228        C236   1.353       .  A
N229        C233   1.353   1_554  A
N229        C618   1.353       .  A
N229        H260   1.030       .  S
N230        C237   1.353       .  A
N230        C238   1.352       .  A
C231        C239   1.390       .  A
C231        C247   1.420       .  A
C232        N611   1.353   1_554  A
C232        C248   1.413       .  A
C232        C240   1.385       .  A
C233        C241   1.386       .  A
C233        C250   1.415       .  A
C234        N613   1.353   1_545  A
C234        C249   1.419       .  A
C234        C242   1.389       .  A
C235        C247   1.420       .  A
C235        C243   1.389       .  A
C236        C250   1.418       .  A
C236        C244   1.387       .  A
C237        C245   1.387       .  A
C237        C248   1.417       .  A
C238        C246   1.389       .  A
C238        C249   1.420       .  A
C239        C624   1.373   1_556  A
C239        H251   1.082       .  S
C240        C623   1.373   1_544  A
C240        H252   1.083       .  S
C241        C626   1.373   1_556  A
C241        H253   1.083       .  S
C242        C625   1.373   1_544  A
C242        H254   1.082       .  S
C243        C244   1.367       .  A
C243        H255   1.081       .  S
C244        H256   1.081       .  S
C245        C246   1.367       .  A
C245        H257   1.081       .  S
C246        H258   1.081       .  S
C248        C357   1.475       .  S
C249        C345   1.476       .  S
N261        C265   1.353       .  A
N261        C650   1.353   1_545  A
N261        H293   1.031       .  S
N262        C269   1.353       .  A
N262        C270   1.352       .  A
N263        C267   1.353   1_565  A
N263        C652   1.353       .  A
N263        H294   1.031       .  S
N264        C271   1.352       .  A
N264        C272   1.352       .  A
C265        C273   1.386       .  A
C265        C281   1.414       .  A
C266        N645   1.353       .  A
C266        C282   1.419       .  A
C266        C274   1.390       .  A
C267        C275   1.390       .  A
C267        C284   1.420       .  A
C268        N647   1.353       .  A
C268        C283   1.413       .  A
C268        C276   1.385       .  A
C269        C281   1.418       .  A
C269        C277   1.387       .  A
C270        C284   1.420       .  A
C270        C278   1.389       .  A
C271        C279   1.389       .  A
C271        C282   1.420       .  A
C272        C280   1.387       .  A
C272        C283   1.417       .  A
C273        C658   1.373   1_545  A
C273        H285   1.083       .  S
C274        C657   1.373       .  A
C274        H286   1.082       .  S
C275        C660   1.373   1_545  A
C275        H287   1.082       .  S
C276        C659   1.373       .  A
C276        H288   1.083       .  S
C277        C278   1.367       .  A
C277        H289   1.081       .  S
C278        H290   1.081       .  S
C279        C280   1.367       .  A
C279        H291   1.081       .  S
C280        H292   1.081       .  S
C281        C377   1.476       .  S
C284        C369   1.477       .  S
O295        V303   1.910       .  S
O295        C305   1.266       .  A
O296        V303   1.911       .  S
O296        C306   1.267       .  A
O297        V303   1.897       .  S
O297        C307   1.263       .  A
O298        V303   1.897       .  S
O298        C308   1.263       .  A
O299        V304   1.897       .  S
O299        C308   1.263       .  A
O300        V304   1.897       .  S
O300        C307   1.263       .  A
O301        V304   1.911       .  S
O301        C306   1.267       .  A
O302        V304   1.910       .  S
O302        C305   1.266       .  A
V303        V304   2.088       .  T
C305        C379   1.482       .  S
C306        C311   1.483       .  S
C307        C367   1.464       .  S
C308        C343   1.464       .  S
C309        C340   1.481       .  S
C309        N310   1.362       .  A
C309        N314   1.362       .  A
N310        C311   1.363       .  A
C311        N312   1.363       .  A
N312        C313   1.362       .  A
C313        C326   1.481       .  S
C313        N314   1.362       .  A
O315        V323   1.909       .  S
O315        C325   1.266       .  A
O316        V323   1.910       .  S
O316        C326   1.266       .  A
O317        V323   1.899       .  S
O317        C327   1.264       .  A
O318        V323   1.899       .  S
O318        C328   1.264       .  A
O319        V324   1.899       .  S
O319        C328   1.264       .  A
O320        V324   1.899       .  S
O320        C327   1.264       .  A
O321        V324   1.910       .  S
O321        C326   1.267       .  A
O322        V324   1.910       .  S
O322        C325   1.266       .  A
V323        V324   2.088       .  T
C325        C381   1.482       .  S
C327        C373   1.467       .  S
C328        C355   1.466       .  S
O329        V337   1.909       .  S
O329        C339   1.266       .  A
O330        V337   1.910       .  S
O330        C340   1.266       .  A
O331        V337   1.899       .  S
O331        C341   1.264       .  A
O332        V337   1.899       .  S
O332        C342   1.264       .  A
O333        V338   1.898       .  S
O333        C342   1.264       .  A
O334        V338   1.899       .  S
O334        C341   1.264       .  A
O335        V338   1.910       .  S
O335        C340   1.267       .  A
O336        V338   1.910       .  S
O336        C339   1.266       .  A
V337        V338   2.088       .  T
C339        C383   1.482       .  S
C341        C349   1.467       .  S
C342        C361   1.466       .  S
C343        N344   1.360       .  A
C343        N348   1.360       .  A
N344        C345   1.358       .  A
C345        N346   1.352       .  A
N346        C347   1.352       .  A
C347        N348   1.358       .  A
C349        N350   1.361       .  A
C349        N354   1.361       .  A
N350        C351   1.358       .  A
C351        N352   1.352       .  A
N352        C353   1.352       .  A
C353        N354   1.358       .  A
C355        N356   1.361       .  A
C355        N360   1.361       .  A
N356        C357   1.358       .  A
C357        N358   1.352       .  A
N358        C359   1.352       .  A
C359        N360   1.358       .  A
C361        N362   1.361       .  A
C361        N366   1.361       .  A
N362        C363   1.358       .  A
C363        N364   1.352       .  A
N364        C365   1.352       .  A
C365        N366   1.358       .  A
C367        N368   1.360       .  A
C367        N372   1.360       .  A
N368        C369   1.358       .  A
C369        N370   1.352       .  A
N370        C371   1.352       .  A
C371        N372   1.358       .  A
C373        N374   1.361       .  A
C373        N378   1.361       .  A
N374        C375   1.358       .  A
C375        N376   1.352       .  A
N376        C377   1.352       .  A
C377        N378   1.358       .  A
C379       N1148   1.362       .  A
C379        N768   1.362   1_545  A
N380        C381   1.362       .  A
N380       C1147   1.362   1_455  A
C381        N766   1.362   1_545  A
N382        C765   1.362       .  A
N382       C1151   1.362   1_455  A
C383        N384   1.362       .  A
C383       N1150   1.362       .  A
N384        C763   1.362       .  A
C385        C401   1.482       .  S
C385       N1154   1.362   1_455  A
N386       C1153   1.362       .  A
N386        C387   1.362       .  A
C387        C435   1.482       .  S
N388       C1157   1.362       .  A
C389        C421   1.482       .  S
C389       N1156   1.362   1_455  A
C389        N390   1.362       .  A
O391        V399   1.910       .  S
O391        C401   1.266       .  A
O392        V399   1.911       .  S
O392        C402   1.267       .  A
O393        V399   1.898       .  S
O393        C403   1.264       .  A
O394        V399   1.898       .  S
O394        C404   1.264       .  A
O395        V400   1.898       .  S
O395        C404   1.264       .  A
O396        V400   1.898       .  S
O396        C403   1.264       .  A
O397        V400   1.911       .  S
O397        C402   1.267       .  A
O398        V400   1.910       .  S
O398        C401   1.266       .  A
V399        V400   2.088       .  T
C402        C405   1.483       .  S
C403        C451   1.465       .  S
C404        C445   1.465       .  S
C405        N406   1.363       .  A
C405        N410   1.363       .  A
N406        C407   1.362       .  A
C407        C436   1.481       .  S
C407        N408   1.362       .  A
N408        C409   1.362       .  A
C409        C422   1.481       .  S
C409        N410   1.362       .  A
O411        V419   1.910       .  S
O411        C421   1.266       .  A
O412        V419   1.910       .  S
O412        C422   1.267       .  A
O413        V419   1.898       .  S
O413        C423   1.264       .  A
O414        V419   1.898       .  S
O414        C424   1.264       .  A
O415        V420   1.900       .  S
O415        C424   1.264       .  A
O416        V420   1.900       .  S
O416        C423   1.264       .  A
O417        V420   1.910       .  S
O417        C422   1.266       .  A
O418        V420   1.909       .  S
O418        C421   1.266       .  A
V419        V420   2.088       .  T
C423        C469   1.466       .  S
C424        C463   1.466       .  S
O425        V433   1.910       .  S
O425        C435   1.266       .  A
O426        V433   1.910       .  S
O426        C436   1.267       .  A
O427        V433   1.898       .  S
O427        C437   1.264       .  A
O428        V433   1.898       .  S
O428        C438   1.264       .  A
O429        V434   1.900       .  S
O429        C438   1.264       .  A
O430        V434   1.900       .  S
O430        C437   1.264       .  A
O431        V434   1.910       .  S
O431        C436   1.266       .  A
O432        V434   1.909       .  S
O432        C435   1.266       .  A
V433        V434   2.088       .  T
C437        C439   1.466       .  S
C438        C457   1.466       .  S
C439        N440   1.361       .  A
C439        N444   1.361       .  A
N440        C441   1.358       .  A
C441        C667   1.475       .  S
C441        N442   1.352       .  A
N442        C443   1.352       .  A
C443        C563   1.477       .  S
C443        N444   1.358       .  A
C445        N446   1.361       .  A
C445        N450   1.360       .  A
N446        C447   1.358       .  A
C447        C597   1.477       .  S
C447        N448   1.352       .  A
N448        C449   1.352       .  A
C449        C666   1.476       .  S
C449        N450   1.358       .  A
C451        N452   1.361       .  A
C451        N456   1.360       .  A
N452        C453   1.358       .  A
C453        C631   1.477       .  S
C453        N454   1.352       .  A
N454        C455   1.352       .  A
C455        C529   1.476       .  S
C455        N456   1.358       .  A
C457        N458   1.361       .  A
C457        N462   1.361       .  A
N458        C459   1.359       .  A
C459        C634   1.476       .  S
C459        N460   1.352       .  A
N460        C461   1.352       .  A
C461        C496   1.477       .  S
C461        N462   1.358       .  A
C463        N464   1.361       .  A
C463        N468   1.361       .  A
N464        C465   1.358       .  A
C465        C564   1.477       .  S
C465        N466   1.352       .  A
N466        C467   1.352       .  A
C467        C600   1.476       .  S
C467        N468   1.358       .  A
C469        N470   1.361       .  A
C469        N474   1.361       .  A
N470        C471   1.358       .  A
C471        C495   1.477       .  S
C471        N472   1.352       .  A
N472        C473   1.352       .  A
C473        C532   1.475       .  S
C473        N474   1.358       .  A
N475        C480   1.357       .  A
N475        C479   1.357       .  A
N475        H507   1.036       .  S
N476        C483   1.350       .  A
N476        C484   1.350   1_556  A
N477        C482   1.357       .  A
N477        C481   1.357       .  A
N477        H508   1.036       .  S
N478        C485   1.350       .  A
N478        C486   1.350   1_556  A
C479        C487   1.389       .  A
C479        C495   1.421       .  A
C480        C496   1.421       .  A
C480        C488   1.389       .  A
C481        C489   1.389       .  A
C481        C498   1.421       .  A
C482        C497   1.421       .  A
C482        C490   1.388       .  A
C483        C495   1.412       .  A
C483        C491   1.387       .  A
C484        C498   1.412       .  A
C484        C492   1.387       .  A
C485        C493   1.387       .  A
C485        C496   1.412       .  A
C486        C494   1.387       .  A
C486        C497   1.412       .  A
C487        C488   1.367       .  A
C487        H499   1.082       .  S
C488        H500   1.082       .  S
C489        C490   1.367       .  A
C489        H501   1.082       .  S
C490        H502   1.082       .  S
C491        C492   1.369   1_556  A
C491        H503   1.083       .  S
C492        H504   1.083       .  S
C493        C494   1.369   1_556  A
C493        H505   1.083       .  S
C494        H506   1.083       .  S
C497        C737   1.477       .  S
C498        C743   1.477       .  S
N509        C514   1.353   1_556  A
N509       C1281   1.353       .  A
N509        H541   1.030       .  S
N510        C517   1.352       .  A
N510        C518   1.353       .  A
N511        C516   1.353       .  A
N511       C1283   1.353   1_554  A
N511        H542   1.031       .  S
N512        C519   1.353       .  A
N512        C520   1.352       .  A
C513       N1277   1.353   1_455  A
C513        C521   1.390       .  A
C513        C529   1.419       .  A
C514        C530   1.414       .  A
C514        C522   1.386       .  A
C515       N1279   1.353   1_556  A
C515        C523   1.385       .  A
C515        C532   1.413       .  A
C516        C531   1.420       .  A
C516        C524   1.390       .  A
C517        C529   1.420       .  A
C517        C525   1.389       .  A
C518        C532   1.417       .  A
C518        C526   1.387       .  A
C519        C527   1.387       .  A
C519        C530   1.418       .  A
C520        C528   1.389       .  A
C520        C531   1.420       .  A
C521       C1290   1.373   1_456  A
C521        H533   1.082       .  S
C522       C1289   1.373   1_554  A
C522        H534   1.083       .  S
C523       C1292   1.373   1_456  A
C523        H535   1.083       .  S
C524       C1291   1.373   1_554  A
C524        H536   1.082       .  S
C525        C526   1.367       .  A
C525        H537   1.081       .  S
C526        H538   1.081       .  S
C527        C528   1.367       .  A
C527        H539   1.081       .  S
C528        H540   1.081       .  S
C530        C735   1.476       .  S
C531        C731   1.477       .  S
N543        C548   1.357       .  A
N543        C547   1.357       .  A
N543        H575   1.036       .  S
N544        C551   1.350       .  A
N544        C552   1.350       .  A
N545        C550   1.357       .  A
N545        C549   1.357       .  A
N545        H576   1.036       .  S
N546        C553   1.350       .  A
N546        C554   1.350       .  A
C547        C555   1.389       .  A
C547        C563   1.421       .  A
C548        C564   1.421       .  A
C548        C556   1.389       .  A
C549        C557   1.389       .  A
C549        C566   1.421       .  A
C550        C565   1.421       .  A
C550        C558   1.388       .  A
C551        C563   1.412       .  A
C551        C559   1.387       .  A
C552        C566   1.412       .  A
C552        C560   1.387       .  A
C553        C561   1.387       .  A
C553        C564   1.412       .  A
C554        C562   1.387       .  A
C554        C565   1.412       .  A
C555        C556   1.367       .  A
C555        H567   1.082       .  S
C556        H568   1.082       .  S
C557        C558   1.367       .  A
C557        H569   1.082       .  S
C558        H570   1.082       .  S
C559        C560   1.369       .  A
C559        H571   1.083       .  S
C560        H572   1.083       .  S
C561        C562   1.369       .  A
C561        H573   1.083       .  S
C562        H574   1.083       .  S
C565        C759   1.477       .  S
C566        C747   1.477       .  S
N577       C1350   1.353       .  A
N577        C581   1.353   1_655  A
N577        H609   1.032       .  S
N578        C585   1.352       .  A
N578        C586   1.353       .  A
N579        C584   1.353       .  A
N579       C1351   1.353       .  A
N579        H610   1.030       .  S
N580        C587   1.352       .  A
N580        C588   1.352       .  A
C581        C589   1.390       .  A
C581        C597   1.420       .  A
C582       N1345   1.353       .  A
C582        C598   1.413       .  A
C582        C590   1.385       .  A
C583       N1347   1.353       .  A
C583        C591   1.386       .  A
C583        C600   1.415       .  A
C584        C599   1.419       .  A
C584        C592   1.389       .  A
C585        C597   1.420       .  A
C585        C593   1.389       .  A
C586        C600   1.418       .  A
C586        C594   1.387       .  A
C587        C595   1.387       .  A
C587        C598   1.417       .  A
C588        C596   1.389       .  A
C588        C599   1.420       .  A
C589       C1358   1.373   1_455  A
C589        H601   1.082       .  S
C590       C1357   1.373       .  A
C590        H602   1.083       .  S
C591       C1360   1.373   1_455  A
C591        H603   1.083       .  S
C592       C1359   1.373       .  A
C592        H604   1.082       .  S
C593        C594   1.367       .  A
C593        H605   1.081       .  S
C594        H606   1.081       .  S
C595        C596   1.367       .  A
C595        H607   1.082       .  S
C596        H608   1.081       .  S
C598        C749   1.475       .  S
C599        C755   1.476       .  S
N611        C615   1.353   1_545  A
N611        H643   1.031       .  S
N612        C619   1.352       .  A
N612        C620   1.353       .  A
N613        C617   1.353   1_554  A
N613        H644   1.030       .  S
N614        C621   1.352       .  A
N614        C622   1.352       .  A
C615        C623   1.390       .  A
C615        C631   1.420       .  A
C616        C632   1.413       .  A
C616        C624   1.385       .  A
C617        C625   1.386       .  A
C617        C634   1.415       .  A
C618        C633   1.419       .  A
C618        C626   1.389       .  A
C619        C631   1.420       .  A
C619        C627   1.389       .  A
C620        C634   1.418       .  A
C620        C628   1.387       .  A
C621        C629   1.387       .  A
C621        C632   1.417       .  A
C622        C630   1.389       .  A
C622        C633   1.420       .  A
C623        H635   1.082       .  S
C624        H636   1.083       .  S
C625        H637   1.083       .  S
C626        H638   1.082       .  S
C627        C628   1.367       .  A
C627        H639   1.081       .  S
C628        H640   1.081       .  S
C629        C630   1.367       .  A
C629        H641   1.081       .  S
C630        H642   1.081       .  S
C632        C741   1.475       .  S
C633        C729   1.476       .  S
N645        C649   1.353       .  A
N645        H677   1.031       .  S
N646        C653   1.353       .  A
N646        C654   1.352       .  A
N647        C651   1.353       .  A
N647        H678   1.031       .  S
N648        C655   1.352       .  A
N648        C656   1.353       .  A
C649        C657   1.386       .  A
C649        C665   1.414       .  A
C650        C666   1.419       .  A
C650        C658   1.390       .  A
C651        C659   1.390       .  A
C651        C668   1.420       .  A
C652        C667   1.413       .  A
C652        C660   1.385       .  A
C653        C665   1.418       .  A
C653        C661   1.387       .  A
C654        C668   1.420       .  A
C654        C662   1.389       .  A
C655        C663   1.389       .  A
C655        C666   1.420       .  A
C656        C664   1.387       .  A
C656        C667   1.417       .  A
C657        H669   1.083       .  S
C658        H670   1.082       .  S
C659        H671   1.082       .  S
C660        H672   1.083       .  S
C661        C662   1.367       .  A
C661        H673   1.081       .  S
C662        H674   1.081       .  S
C663        C664   1.367       .  A
C663        H675   1.081       .  S
C664        H676   1.081       .  S
C665        C761   1.476       .  S
C668        C753   1.477       .  S
O679        V687   1.910       .  S
O679        C689   1.266       .  A
O680        V687   1.911       .  S
O680        C690   1.267       .  A
O681        V687   1.897       .  S
O681        C691   1.263       .  A
O682        V687   1.897       .  S
O682        C692   1.263       .  A
O683        V688   1.897       .  S
O683        C692   1.263       .  A
O684        V688   1.897       .  S
O684        C691   1.263       .  A
O685        V688   1.911       .  S
O685        C690   1.267       .  A
O686        V688   1.910       .  S
O686        C689   1.266       .  A
V687        V688   2.088       .  T
C689        C763   1.482       .  S
C690        C695   1.483       .  S
C691        C751   1.464       .  S
C692        C727   1.464       .  S
C693        C724   1.481       .  S
C693        N694   1.362       .  A
C693        N698   1.362       .  A
N694        C695   1.363       .  A
C695        N696   1.363       .  A
N696        C697   1.362       .  A
C697        C710   1.481       .  S
C697        N698   1.362       .  A
O699        V707   1.909       .  S
O699        C709   1.266       .  A
O700        V707   1.910       .  S
O700        C710   1.266       .  A
O701        V707   1.899       .  S
O701        C711   1.264       .  A
O702        V707   1.899       .  S
O702        C712   1.264       .  A
O703        V708   1.899       .  S
O703        C712   1.264       .  A
O704        V708   1.899       .  S
O704        C711   1.264       .  A
O705        V708   1.910       .  S
O705        C710   1.267       .  A
O706        V708   1.910       .  S
O706        C709   1.266       .  A
V707        V708   2.088       .  T
C709        C765   1.482       .  S
C711        C757   1.467       .  S
C712        C739   1.466       .  S
O713        V721   1.909       .  S
O713        C723   1.266       .  A
O714        V721   1.910       .  S
O714        C724   1.266       .  A
O715        V721   1.899       .  S
O715        C725   1.264       .  A
O716        V721   1.899       .  S
O716        C726   1.264       .  A
O717        V722   1.898       .  S
O717        C726   1.264       .  A
O718        V722   1.899       .  S
O718        C725   1.264       .  A
O719        V722   1.910       .  S
O719        C724   1.267       .  A
O720        V722   1.910       .  S
O720        C723   1.266       .  A
V721        V722   2.088       .  T
C723        C767   1.482       .  S
C725        C733   1.467       .  S
C726        C745   1.466       .  S
C727        N728   1.360       .  A
C727        N732   1.360       .  A
N728        C729   1.358       .  A
C729        N730   1.352       .  A
N730        C731   1.352       .  A
C731        N732   1.358       .  A
C733        N734   1.361       .  A
C733        N738   1.361       .  A
N734        C735   1.358       .  A
C735        N736   1.352       .  A
N736        C737   1.352       .  A
C737        N738   1.358       .  A
C739        N740   1.361       .  A
C739        N744   1.361       .  A
N740        C741   1.358       .  A
C741        N742   1.352       .  A
N742        C743   1.352       .  A
C743        N744   1.358       .  A
C745        N746   1.361       .  A
C745        N750   1.361       .  A
N746        C747   1.358       .  A
C747        N748   1.352       .  A
N748        C749   1.352       .  A
C749        N750   1.358       .  A
C751        N752   1.360       .  A
C751        N756   1.360       .  A
N752        C753   1.358       .  A
C753        N754   1.352       .  A
N754        C755   1.352       .  A
C755        N756   1.358       .  A
C757        N758   1.361       .  A
C757        N762   1.361       .  A
N758        C759   1.358       .  A
C759        N760   1.352       .  A
N760        C761   1.352       .  A
C761        N762   1.358       .  A
C763       N1532   1.362       .  A
N764       C1531   1.362   1_455  A
N764        C765   1.362       .  A
N766       C1535   1.362   1_455  A
C767       N1534   1.362       .  A
C767        N768   1.362       .  A
C769        C785   1.482       .  S
C769       N1158   1.362       .  A
N770        C771   1.362       .  A
C771        C819   1.482       .  S
C771       N1156   1.362       .  A
N772       C1155   1.362   1_545  A
C773        C805   1.482       .  S
C773        N774   1.362       .  A
N774       C1153   1.362   1_545  A
O775        V783   1.910       .  S
O775        C785   1.266       .  A
O776        V783   1.911       .  S
O776        C786   1.267       .  A
O777        V783   1.898       .  S
O777        C787   1.264       .  A
O778        V783   1.898       .  S
O778        C788   1.264       .  A
O779        V784   1.898       .  S
O779        C788   1.264       .  A
O780        V784   1.898       .  S
O780        C787   1.264       .  A
O781        V784   1.911       .  S
O781        C786   1.267       .  A
O782        V784   1.910       .  S
O782        C785   1.266       .  A
V783        V784   2.088       .  T
C786        C789   1.483       .  S
C787        C835   1.465       .  S
C788        C829   1.465       .  S
C789        N790   1.363       .  A
C789        N794   1.363       .  A
N790        C791   1.362       .  A
C791        C820   1.481       .  S
C791        N792   1.362       .  A
N792        C793   1.362       .  A
C793        C806   1.481       .  S
C793        N794   1.362       .  A
O795        V803   1.910       .  S
O795        C805   1.266       .  A
O796        V803   1.910       .  S
O796        C806   1.267       .  A
O797        V803   1.898       .  S
O797        C807   1.264       .  A
O798        V803   1.898       .  S
O798        C808   1.264       .  A
O799        V804   1.900       .  S
O799        C808   1.264       .  A
O800        V804   1.900       .  S
O800        C807   1.264       .  A
O801        V804   1.910       .  S
O801        C806   1.266       .  A
O802        V804   1.909       .  S
O802        C805   1.266       .  A
V803        V804   2.088       .  T
C807        C853   1.466       .  S
C808        C847   1.466       .  S
O809        V817   1.910       .  S
O809        C819   1.266       .  A
O810        V817   1.910       .  S
O810        C820   1.267       .  A
O811        V817   1.898       .  S
O811        C821   1.264       .  A
O812        V817   1.898       .  S
O812        C822   1.264       .  A
O813        V818   1.900       .  S
O813        C822   1.264       .  A
O814        V818   1.900       .  S
O814        C821   1.264       .  A
O815        V818   1.910       .  S
O815        C820   1.266       .  A
O816        V818   1.909       .  S
O816        C819   1.266       .  A
V817        V818   2.088       .  T
C821        C823   1.466       .  S
C822        C841   1.466       .  S
C823        N824   1.361       .  A
C823        N828   1.361       .  A
N824        C825   1.358       .  A
C825       C1051   1.475       .  S
C825        N826   1.352       .  A
N826        C827   1.352       .  A
C827        C947   1.477       .  S
C827        N828   1.358       .  A
C829        N830   1.361       .  A
C829        N834   1.360       .  A
N830        C831   1.358       .  A
C831        C981   1.477       .  S
C831        N832   1.352       .  A
N832        C833   1.352       .  A
C833       C1050   1.476       .  S
C833        N834   1.358       .  A
C835        N836   1.361       .  A
C835        N840   1.360       .  A
N836        C837   1.358       .  A
C837       C1015   1.477       .  S
C837        N838   1.352       .  A
N838        C839   1.352       .  A
C839        C913   1.476       .  S
C839        N840   1.358       .  A
C841        N842   1.361       .  A
C841        N846   1.361       .  A
N842        C843   1.359       .  A
C843       C1018   1.476       .  S
C843        N844   1.352       .  A
N844        C845   1.352       .  A
C845        C880   1.477       .  S
C845        N846   1.358       .  A
C847        N848   1.361       .  A
C847        N852   1.361       .  A
N848        C849   1.358       .  A
C849        C948   1.477       .  S
C849        N850   1.352       .  A
N850        C851   1.352       .  A
C851        C984   1.476       .  S
C851        N852   1.358       .  A
C853        N854   1.361       .  A
C853        N858   1.361       .  A
N854        C855   1.358       .  A
C855        C879   1.477       .  S
C855        N856   1.352       .  A
N856        C857   1.352       .  A
C857        C916   1.475       .  S
C857        N858   1.358       .  A
N859        C864   1.357       .  A
N859        C863   1.357       .  A
N859        H891   1.036       .  S
N860        C867   1.350       .  A
N860        C868   1.350   1_556  A
N861        C866   1.357       .  A
N861        C865   1.357       .  A
N861        H892   1.036       .  S
N862        C869   1.350       .  A
N862        C870   1.350   1_556  A
C863        C871   1.389       .  A
C863        C879   1.421       .  A
C864        C880   1.421       .  A
C864        C872   1.389       .  A
C865        C873   1.389       .  A
C865        C882   1.421       .  A
C866        C881   1.421       .  A
C866        C874   1.388       .  A
C867        C879   1.412       .  A
C867        C875   1.387       .  A
C868        C882   1.412       .  A
C868        C876   1.387       .  A
C869        C877   1.387       .  A
C869        C880   1.412       .  A
C870        C878   1.387       .  A
C870        C881   1.412       .  A
C871        C872   1.367       .  A
C871        H883   1.082       .  S
C872        H884   1.082       .  S
C873        C874   1.367       .  A
C873        H885   1.082       .  S
C874        H886   1.082       .  S
C875        C876   1.369   1_556  A
C875        H887   1.083       .  S
C876        H888   1.083       .  S
C877        C878   1.369   1_556  A
C877        H889   1.083       .  S
C878        H890   1.083       .  S
C881       C1121   1.477       .  S
C882       C1127   1.477       .  S
N893        C898   1.353   1_556  A
N893        H925   1.030       .  S
N894        C901   1.352       .  A
N894        C902   1.353       .  A
N895        C900   1.353   1_455  A
N895        H926   1.031       .  S
N896        C903   1.353       .  A
N896        C904   1.352       .  A
C897        C905   1.390       .  A
C897        C913   1.419       .  A
C898        C914   1.414       .  A
C898        C906   1.386       .  A
C899        C907   1.385       .  A
C899        C916   1.413       .  A
C900        C915   1.420       .  A
C900        C908   1.390       .  A
C901        C913   1.420       .  A
C901        C909   1.389       .  A
C902        C916   1.417       .  A
C902        C910   1.387       .  A
C903        C911   1.387       .  A
C903        C914   1.418       .  A
C904        C912   1.389       .  A
C904        C915   1.420       .  A
C905        H917   1.082       .  S
C906        H918   1.083       .  S
C907        H919   1.083       .  S
C908        H920   1.082       .  S
C909        C910   1.367       .  A
C909        H921   1.081       .  S
C910        H922   1.081       .  S
C911        C912   1.367       .  A
C911        H923   1.081       .  S
C912        H924   1.081       .  S
C914       C1119   1.476       .  S
C915       C1115   1.477       .  S
N927        C932   1.357       .  A
N927        C931   1.357       .  A
N927        H959   1.036       .  S
N928        C935   1.350       .  A
N928        C936   1.350       .  A
N929        C934   1.357       .  A
N929        C933   1.357       .  A
N929        H960   1.036       .  S
N930        C937   1.350       .  A
N930        C938   1.350       .  A
C931        C939   1.389       .  A
C931        C947   1.421       .  A
C932        C948   1.421       .  A
C932        C940   1.389       .  A
C933        C941   1.389       .  A
C933        C950   1.421       .  A
C934        C949   1.421       .  A
C934        C942   1.388       .  A
C935        C947   1.412       .  A
C935        C943   1.387       .  A
C936        C950   1.412       .  A
C936        C944   1.387       .  A
C937        C945   1.387       .  A
C937        C948   1.412       .  A
C938        C946   1.387       .  A
C938        C949   1.412       .  A
C939        C940   1.367       .  A
C939        H951   1.082       .  S
C940        H952   1.082       .  S
C941        C942   1.367       .  A
C941        H953   1.082       .  S
C942        H954   1.082       .  S
C943        C944   1.369       .  A
C943        H955   1.083       .  S
C944        H956   1.083       .  S
C945        C946   1.369       .  A
C945        H957   1.083       .  S
C946        H958   1.083       .  S
C949       C1143   1.477       .  S
C950       C1131   1.477       .  S
N961        C965   1.353       .  A
N961        H993   1.032       .  S
N962        C969   1.352       .  A
N962        C970   1.353       .  A
N963        C968   1.353   1_455  A
N963        H994   1.030       .  S
N964        C971   1.352       .  A
N964        C972   1.352       .  A
C965        C973   1.390       .  A
C965        C981   1.420       .  A
C966        C982   1.413       .  A
C966        C974   1.385       .  A
C967        C975   1.386       .  A
C967        C984   1.415       .  A
C968        C983   1.419       .  A
C968        C976   1.389       .  A
C969        C981   1.420       .  A
C969        C977   1.389       .  A
C970        C984   1.418       .  A
C970        C978   1.387       .  A
C971        C979   1.387       .  A
C971        C982   1.417       .  A
C972        C980   1.389       .  A
C972        C983   1.420       .  A
C973        H985   1.082       .  S
C974        H986   1.083       .  S
C975        H987   1.083       .  S
C976        H988   1.082       .  S
C977        C978   1.367       .  A
C977        H989   1.081       .  S
C978        H990   1.081       .  S
C979        C980   1.367       .  A
C979        H991   1.082       .  S
C980        H992   1.081       .  S
C982       C1133   1.475       .  S
C983       C1139   1.476       .  S
N995       C1384   1.353   1_556  A
N995        C999   1.353       .  A
N995       H1027   1.031       .  S
N996       C1003   1.352       .  A
N996       C1004   1.353       .  A
N997       C1386   1.353       .  A
N997       C1001   1.353   1_554  A
N997       H1028   1.030       .  S
N998       C1005   1.353       .  A
N998       C1006   1.352       .  A
C999       C1007   1.390       .  A
C999       C1015   1.420       .  A
C1000      N1379   1.353   1_554  A
C1000      C1016   1.413       .  A
C1000      C1008   1.385       .  A
C1001      C1009   1.386       .  A
C1001      C1018   1.415       .  A
C1002      N1381   1.353   1_545  A
C1002      C1017   1.419       .  A
C1002      C1010   1.389       .  A
C1003      C1015   1.420       .  A
C1003      C1011   1.389       .  A
C1004      C1018   1.418       .  A
C1004      C1012   1.387       .  A
C1005      C1013   1.387       .  A
C1005      C1016   1.417       .  A
C1006      C1014   1.389       .  A
C1006      C1017   1.420       .  A
C1007      C1392   1.373   1_556  A
C1007      H1019   1.082       .  S
C1008      C1391   1.373   1_544  A
C1008      H1020   1.083       .  S
C1009      C1394   1.373   1_556  A
C1009      H1021   1.083       .  S
C1010      C1393   1.373   1_544  A
C1010      H1022   1.082       .  S
C1011      C1012   1.367       .  A
C1011      H1023   1.081       .  S
C1012      H1024   1.081       .  S
C1013      C1014   1.367       .  A
C1013      H1025   1.081       .  S
C1014      H1026   1.081       .  S
C1016      C1125   1.475       .  S
C1017      C1113   1.476       .  S
N1029      C1418   1.353   1_545  A
N1029      C1033   1.353       .  A
N1029      H1061   1.031       .  S
N1030      C1037   1.353       .  A
N1030      C1038   1.352       .  A
N1031      C1420   1.353       .  A
N1031      C1035   1.353   1_565  A
N1031      H1062   1.031       .  S
N1032      C1039   1.352       .  A
N1032      C1040   1.352       .  A
C1033      C1041   1.386       .  A
C1033      C1049   1.414       .  A
C1034      N1413   1.353       .  A
C1034      C1050   1.419       .  A
C1034      C1042   1.390       .  A
C1035      C1043   1.390       .  A
C1035      C1052   1.420       .  A
C1036      N1415   1.353       .  A
C1036      C1051   1.413       .  A
C1036      C1044   1.385       .  A
C1037      C1049   1.418       .  A
C1037      C1045   1.387       .  A
C1038      C1052   1.420       .  A
C1038      C1046   1.389       .  A
C1039      C1047   1.389       .  A
C1039      C1050   1.420       .  A
C1040      C1048   1.387       .  A
C1040      C1051   1.417       .  A
C1041      C1426   1.373   1_545  A
C1041      H1053   1.083       .  S
C1042      C1425   1.373       .  A
C1042      H1054   1.082       .  S
C1043      C1428   1.373   1_545  A
C1043      H1055   1.082       .  S
C1044      C1427   1.373       .  A
C1044      H1056   1.083       .  S
C1045      C1046   1.367       .  A
C1045      H1057   1.081       .  S
C1046      H1058   1.081       .  S
C1047      C1048   1.367       .  A
C1047      H1059   1.081       .  S
C1048      H1060   1.081       .  S
C1049      C1145   1.476       .  S
C1052      C1137   1.477       .  S
O1063      V1071   1.910       .  S
O1063      C1073   1.266       .  A
O1064      V1071   1.911       .  S
O1064      C1074   1.267       .  A
O1065      V1071   1.897       .  S
O1065      C1075   1.263       .  A
O1066      V1071   1.897       .  S
O1066      C1076   1.263       .  A
O1067      V1072   1.897       .  S
O1067      C1076   1.263       .  A
O1068      V1072   1.897       .  S
O1068      C1075   1.263       .  A
O1069      V1072   1.911       .  S
O1069      C1074   1.267       .  A
O1070      V1072   1.910       .  S
O1070      C1073   1.266       .  A
V1071      V1072   2.088       .  T
C1073      C1147   1.482       .  S
C1074      C1079   1.483       .  S
C1075      C1135   1.464       .  S
C1076      C1111   1.464       .  S
C1077      C1108   1.481       .  S
C1077      N1078   1.362       .  A
C1077      N1082   1.362       .  A
N1078      C1079   1.363       .  A
C1079      N1080   1.363       .  A
N1080      C1081   1.362       .  A
C1081      C1094   1.481       .  S
C1081      N1082   1.362       .  A
O1083      V1091   1.909       .  S
O1083      C1093   1.266       .  A
O1084      V1091   1.910       .  S
O1084      C1094   1.266       .  A
O1085      V1091   1.899       .  S
O1085      C1095   1.264       .  A
O1086      V1091   1.899       .  S
O1086      C1096   1.264       .  A
O1087      V1092   1.899       .  S
O1087      C1096   1.264       .  A
O1088      V1092   1.899       .  S
O1088      C1095   1.264       .  A
O1089      V1092   1.910       .  S
O1089      C1094   1.267       .  A
O1090      V1092   1.910       .  S
O1090      C1093   1.266       .  A
V1091      V1092   2.088       .  T
C1093      C1149   1.482       .  S
C1095      C1141   1.467       .  S
C1096      C1123   1.466       .  S
O1097      V1105   1.909       .  S
O1097      C1107   1.266       .  A
O1098      V1105   1.910       .  S
O1098      C1108   1.266       .  A
O1099      V1105   1.899       .  S
O1099      C1109   1.264       .  A
O1100      V1105   1.899       .  S
O1100      C1110   1.264       .  A
O1101      V1106   1.898       .  S
O1101      C1110   1.264       .  A
O1102      V1106   1.899       .  S
O1102      C1109   1.264       .  A
O1103      V1106   1.910       .  S
O1103      C1108   1.267       .  A
O1104      V1106   1.910       .  S
O1104      C1107   1.266       .  A
V1105      V1106   2.088       .  T
C1107      C1151   1.482       .  S
C1109      C1117   1.467       .  S
C1110      C1129   1.466       .  S
C1111      N1112   1.360       .  A
C1111      N1116   1.360       .  A
N1112      C1113   1.358       .  A
C1113      N1114   1.352       .  A
N1114      C1115   1.352       .  A
C1115      N1116   1.358       .  A
C1117      N1118   1.361       .  A
C1117      N1122   1.361       .  A
N1118      C1119   1.358       .  A
C1119      N1120   1.352       .  A
N1120      C1121   1.352       .  A
C1121      N1122   1.358       .  A
C1123      N1124   1.361       .  A
C1123      N1128   1.361       .  A
N1124      C1125   1.358       .  A
C1125      N1126   1.352       .  A
N1126      C1127   1.352       .  A
C1127      N1128   1.358       .  A
C1129      N1130   1.361       .  A
C1129      N1134   1.361       .  A
N1130      C1131   1.358       .  A
C1131      N1132   1.352       .  A
N1132      C1133   1.352       .  A
C1133      N1134   1.358       .  A
C1135      N1136   1.360       .  A
C1135      N1140   1.360       .  A
N1136      C1137   1.358       .  A
C1137      N1138   1.352       .  A
N1138      C1139   1.352       .  A
C1139      N1140   1.358       .  A
C1141      N1142   1.361       .  A
C1141      N1146   1.361       .  A
N1142      C1143   1.358       .  A
C1143      N1144   1.352       .  A
N1144      C1145   1.352       .  A
C1145      N1146   1.358       .  A
C1147      N1536   1.362   1_545  A
N1148      C1149   1.362       .  A
C1149      N1534   1.362   1_545  A
N1150      C1533   1.362       .  A
C1151      N1152   1.362       .  A
N1152      C1531   1.362       .  A
C1153      C1169   1.482       .  S
N1154      C1155   1.362       .  A
C1155      C1203   1.482       .  S
C1157      C1189   1.482       .  S
C1157      N1158   1.362       .  A
O1159      V1167   1.910       .  S
O1159      C1169   1.266       .  A
O1160      V1167   1.911       .  S
O1160      C1170   1.267       .  A
O1161      V1167   1.898       .  S
O1161      C1171   1.264       .  A
O1162      V1167   1.898       .  S
O1162      C1172   1.264       .  A
O1163      V1168   1.898       .  S
O1163      C1172   1.264       .  A
O1164      V1168   1.898       .  S
O1164      C1171   1.264       .  A
O1165      V1168   1.911       .  S
O1165      C1170   1.267       .  A
O1166      V1168   1.910       .  S
O1166      C1169   1.266       .  A
V1167      V1168   2.088       .  T
C1170      C1173   1.483       .  S
C1171      C1219   1.465       .  S
C1172      C1213   1.465       .  S
C1173      N1174   1.363       .  A
C1173      N1178   1.363       .  A
N1174      C1175   1.362       .  A
C1175      C1204   1.481       .  S
C1175      N1176   1.362       .  A
N1176      C1177   1.362       .  A
C1177      C1190   1.481       .  S
C1177      N1178   1.362       .  A
O1179      V1187   1.910       .  S
O1179      C1189   1.266       .  A
O1180      V1187   1.910       .  S
O1180      C1190   1.267       .  A
O1181      V1187   1.898       .  S
O1181      C1191   1.264       .  A
O1182      V1187   1.898       .  S
O1182      C1192   1.264       .  A
O1183      V1188   1.900       .  S
O1183      C1192   1.264       .  A
O1184      V1188   1.900       .  S
O1184      C1191   1.264       .  A
O1185      V1188   1.910       .  S
O1185      C1190   1.266       .  A
O1186      V1188   1.909       .  S
O1186      C1189   1.266       .  A
V1187      V1188   2.088       .  T
C1191      C1237   1.466       .  S
C1192      C1231   1.466       .  S
O1193      V1201   1.910       .  S
O1193      C1203   1.266       .  A
O1194      V1201   1.910       .  S
O1194      C1204   1.267       .  A
O1195      V1201   1.898       .  S
O1195      C1205   1.264       .  A
O1196      V1201   1.898       .  S
O1196      C1206   1.264       .  A
O1197      V1202   1.900       .  S
O1197      C1206   1.264       .  A
O1198      V1202   1.900       .  S
O1198      C1205   1.264       .  A
O1199      V1202   1.910       .  S
O1199      C1204   1.266       .  A
O1200      V1202   1.909       .  S
O1200      C1203   1.266       .  A
V1201      V1202   2.088       .  T
C1205      C1207   1.466       .  S
C1206      C1225   1.466       .  S
C1207      N1208   1.361       .  A
C1207      N1212   1.361       .  A
N1208      C1209   1.358       .  A
C1209      C1435   1.475       .  S
C1209      N1210   1.352       .  A
N1210      C1211   1.352       .  A
C1211      C1331   1.477       .  S
C1211      N1212   1.358       .  A
C1213      N1214   1.361       .  A
C1213      N1218   1.360       .  A
N1214      C1215   1.358       .  A
C1215      C1365   1.477       .  S
C1215      N1216   1.352       .  A
N1216      C1217   1.352       .  A
C1217      C1434   1.476       .  S
C1217      N1218   1.358       .  A
C1219      N1220   1.361       .  A
C1219      N1224   1.360       .  A
N1220      C1221   1.358       .  A
C1221      C1399   1.477       .  S
C1221      N1222   1.352       .  A
N1222      C1223   1.352       .  A
C1223      C1297   1.476       .  S
C1223      N1224   1.358       .  A
C1225      N1226   1.361       .  A
C1225      N1230   1.361       .  A
N1226      C1227   1.359       .  A
C1227      C1402   1.476       .  S
C1227      N1228   1.352       .  A
N1228      C1229   1.352       .  A
C1229      C1264   1.477       .  S
C1229      N1230   1.358       .  A
C1231      N1232   1.361       .  A
C1231      N1236   1.361       .  A
N1232      C1233   1.358       .  A
C1233      C1332   1.477       .  S
C1233      N1234   1.352       .  A
N1234      C1235   1.352       .  A
C1235      C1368   1.476       .  S
C1235      N1236   1.358       .  A
C1237      N1238   1.361       .  A
C1237      N1242   1.361       .  A
N1238      C1239   1.358       .  A
C1239      C1263   1.477       .  S
C1239      N1240   1.352       .  A
N1240      C1241   1.352       .  A
C1241      C1300   1.475       .  S
C1241      N1242   1.358       .  A
N1243      C1248   1.357       .  A
N1243      C1247   1.357       .  A
N1243      H1275   1.036       .  S
N1244      C1251   1.350       .  A
N1244      C1252   1.350   1_556  A
N1245      C1250   1.357       .  A
N1245      C1249   1.357       .  A
N1245      H1276   1.036       .  S
N1246      C1253   1.350       .  A
N1246      C1254   1.350   1_556  A
C1247      C1255   1.389       .  A
C1247      C1263   1.421       .  A
C1248      C1264   1.421       .  A
C1248      C1256   1.389       .  A
C1249      C1257   1.389       .  A
C1249      C1266   1.421       .  A
C1250      C1265   1.421       .  A
C1250      C1258   1.388       .  A
C1251      C1263   1.412       .  A
C1251      C1259   1.387       .  A
C1252      C1266   1.412       .  A
C1252      C1260   1.387       .  A
C1253      C1261   1.387       .  A
C1253      C1264   1.412       .  A
C1254      C1262   1.387       .  A
C1254      C1265   1.412       .  A
C1255      C1256   1.367       .  A
C1255      H1267   1.082       .  S
C1256      H1268   1.082       .  S
C1257      C1258   1.367       .  A
C1257      H1269   1.082       .  S
C1258      H1270   1.082       .  S
C1259      C1260   1.369   1_556  A
C1259      H1271   1.083       .  S
C1260      H1272   1.083       .  S
C1261      C1262   1.369   1_556  A
C1261      H1273   1.083       .  S
C1262      H1274   1.083       .  S
C1265      C1505   1.477       .  S
C1266      C1511   1.477       .  S
N1277      C1282   1.353   1_556  A
N1277      H1309   1.030       .  S
N1278      C1285   1.352       .  A
N1278      C1286   1.353       .  A
N1279      C1284   1.353   1_455  A
N1279      H1310   1.031       .  S
N1280      C1287   1.353       .  A
N1280      C1288   1.352       .  A
C1281      C1289   1.390       .  A
C1281      C1297   1.419       .  A
C1282      C1298   1.414       .  A
C1282      C1290   1.386       .  A
C1283      C1291   1.385       .  A
C1283      C1300   1.413       .  A
C1284      C1299   1.420       .  A
C1284      C1292   1.390       .  A
C1285      C1297   1.420       .  A
C1285      C1293   1.389       .  A
C1286      C1300   1.417       .  A
C1286      C1294   1.387       .  A
C1287      C1295   1.387       .  A
C1287      C1298   1.418       .  A
C1288      C1296   1.389       .  A
C1288      C1299   1.420       .  A
C1289      H1301   1.082       .  S
C1290      H1302   1.083       .  S
C1291      H1303   1.083       .  S
C1292      H1304   1.082       .  S
C1293      C1294   1.367       .  A
C1293      H1305   1.081       .  S
C1294      H1306   1.081       .  S
C1295      C1296   1.367       .  A
C1295      H1307   1.081       .  S
C1296      H1308   1.081       .  S
C1298      C1503   1.476       .  S
C1299      C1499   1.477       .  S
N1311      C1316   1.357       .  A
N1311      C1315   1.357       .  A
N1311      H1343   1.036       .  S
N1312      C1319   1.350       .  A
N1312      C1320   1.350       .  A
N1313      C1318   1.357       .  A
N1313      C1317   1.357       .  A
N1313      H1344   1.036       .  S
N1314      C1321   1.350       .  A
N1314      C1322   1.350       .  A
C1315      C1323   1.389       .  A
C1315      C1331   1.421       .  A
C1316      C1332   1.421       .  A
C1316      C1324   1.389       .  A
C1317      C1325   1.389       .  A
C1317      C1334   1.421       .  A
C1318      C1333   1.421       .  A
C1318      C1326   1.388       .  A
C1319      C1331   1.412       .  A
C1319      C1327   1.387       .  A
C1320      C1334   1.412       .  A
C1320      C1328   1.387       .  A
C1321      C1329   1.387       .  A
C1321      C1332   1.412       .  A
C1322      C1330   1.387       .  A
C1322      C1333   1.412       .  A
C1323      C1324   1.367       .  A
C1323      H1335   1.082       .  S
C1324      H1336   1.082       .  S
C1325      C1326   1.367       .  A
C1325      H1337   1.082       .  S
C1326      H1338   1.082       .  S
C1327      C1328   1.369       .  A
C1327      H1339   1.083       .  S
C1328      H1340   1.083       .  S
C1329      C1330   1.369       .  A
C1329      H1341   1.083       .  S
C1330      H1342   1.083       .  S
C1333      C1527   1.477       .  S
C1334      C1515   1.477       .  S
N1345      C1349   1.353       .  A
N1345      H1377   1.032       .  S
N1346      C1353   1.352       .  A
N1346      C1354   1.353       .  A
N1347      C1352   1.353   1_455  A
N1347      H1378   1.030       .  S
N1348      C1355   1.352       .  A
N1348      C1356   1.352       .  A
C1349      C1357   1.390       .  A
C1349      C1365   1.420       .  A
C1350      C1366   1.413       .  A
C1350      C1358   1.385       .  A
C1351      C1359   1.386       .  A
C1351      C1368   1.415       .  A
C1352      C1367   1.419       .  A
C1352      C1360   1.389       .  A
C1353      C1365   1.420       .  A
C1353      C1361   1.389       .  A
C1354      C1368   1.418       .  A
C1354      C1362   1.387       .  A
C1355      C1363   1.387       .  A
C1355      C1366   1.417       .  A
C1356      C1364   1.389       .  A
C1356      C1367   1.420       .  A
C1357      H1369   1.082       .  S
C1358      H1370   1.083       .  S
C1359      H1371   1.083       .  S
C1360      H1372   1.082       .  S
C1361      C1362   1.367       .  A
C1361      H1373   1.081       .  S
C1362      H1374   1.081       .  S
C1363      C1364   1.367       .  A
C1363      H1375   1.082       .  S
C1364      H1376   1.081       .  S
C1366      C1517   1.475       .  S
C1367      C1523   1.476       .  S
N1379      C1383   1.353   1_545  A
N1379      H1411   1.031       .  S
N1380      C1387   1.352       .  A
N1380      C1388   1.353       .  A
N1381      C1385   1.353   1_554  A
N1381      H1412   1.030       .  S
N1382      C1389   1.352       .  A
N1382      C1390   1.352       .  A
C1383      C1391   1.390       .  A
C1383      C1399   1.420       .  A
C1384      C1400   1.413       .  A
C1384      C1392   1.385       .  A
C1385      C1393   1.386       .  A
C1385      C1402   1.415       .  A
C1386      C1401   1.419       .  A
C1386      C1394   1.389       .  A
C1387      C1399   1.420       .  A
C1387      C1395   1.389       .  A
C1388      C1402   1.418       .  A
C1388      C1396   1.387       .  A
C1389      C1397   1.387       .  A
C1389      C1400   1.417       .  A
C1390      C1398   1.389       .  A
C1390      C1401   1.420       .  A
C1391      H1403   1.082       .  S
C1392      H1404   1.083       .  S
C1393      H1405   1.083       .  S
C1394      H1406   1.082       .  S
C1395      C1396   1.367       .  A
C1395      H1407   1.081       .  S
C1396      H1408   1.081       .  S
C1397      C1398   1.367       .  A
C1397      H1409   1.081       .  S
C1398      H1410   1.081       .  S
C1400      C1509   1.475       .  S
C1401      C1497   1.476       .  S
N1413      C1417   1.353       .  A
N1413      H1445   1.031       .  S
N1414      C1421   1.353       .  A
N1414      C1422   1.352       .  A
N1415      C1419   1.353       .  A
N1415      H1446   1.031       .  S
N1416      C1423   1.352       .  A
N1416      C1424   1.353       .  A
C1417      C1425   1.386       .  A
C1417      C1433   1.414       .  A
C1418      C1434   1.419       .  A
C1418      C1426   1.390       .  A
C1419      C1427   1.390       .  A
C1419      C1436   1.420       .  A
C1420      C1435   1.413       .  A
C1420      C1428   1.385       .  A
C1421      C1433   1.418       .  A
C1421      C1429   1.387       .  A
C1422      C1436   1.420       .  A
C1422      C1430   1.389       .  A
C1423      C1431   1.389       .  A
C1423      C1434   1.420       .  A
C1424      C1432   1.387       .  A
C1424      C1435   1.417       .  A
C1425      H1437   1.083       .  S
C1426      H1438   1.082       .  S
C1427      H1439   1.082       .  S
C1428      H1440   1.083       .  S
C1429      C1430   1.367       .  A
C1429      H1441   1.081       .  S
C1430      H1442   1.081       .  S
C1431      C1432   1.367       .  A
C1431      H1443   1.081       .  S
C1432      H1444   1.081       .  S
C1433      C1529   1.476       .  S
C1436      C1521   1.477       .  S
O1447      V1455   1.910       .  S
O1447      C1457   1.266       .  A
O1448      V1455   1.911       .  S
O1448      C1458   1.267       .  A
O1449      V1455   1.897       .  S
O1449      C1459   1.263       .  A
O1450      V1455   1.897       .  S
O1450      C1460   1.263       .  A
O1451      V1456   1.897       .  S
O1451      C1460   1.263       .  A
O1452      V1456   1.897       .  S
O1452      C1459   1.263       .  A
O1453      V1456   1.911       .  S
O1453      C1458   1.267       .  A
O1454      V1456   1.910       .  S
O1454      C1457   1.266       .  A
V1455      V1456   2.088       .  T
C1457      C1531   1.482       .  S
C1458      C1463   1.483       .  S
C1459      C1519   1.464       .  S
C1460      C1495   1.464       .  S
C1461      C1492   1.481       .  S
C1461      N1462   1.362       .  A
C1461      N1466   1.362       .  A
N1462      C1463   1.363       .  A
C1463      N1464   1.363       .  A
N1464      C1465   1.362       .  A
C1465      C1478   1.481       .  S
C1465      N1466   1.362       .  A
O1467      V1475   1.909       .  S
O1467      C1477   1.266       .  A
O1468      V1475   1.910       .  S
O1468      C1478   1.266       .  A
O1469      V1475   1.899       .  S
O1469      C1479   1.264       .  A
O1470      V1475   1.899       .  S
O1470      C1480   1.264       .  A
O1471      V1476   1.899       .  S
O1471      C1480   1.264       .  A
O1472      V1476   1.899       .  S
O1472      C1479   1.264       .  A
O1473      V1476   1.910       .  S
O1473      C1478   1.267       .  A
O1474      V1476   1.910       .  S
O1474      C1477   1.266       .  A
V1475      V1476   2.088       .  T
C1477      C1533   1.482       .  S
C1479      C1525   1.467       .  S
C1480      C1507   1.466       .  S
O1481      V1489   1.909       .  S
O1481      C1491   1.266       .  A
O1482      V1489   1.910       .  S
O1482      C1492   1.266       .  A
O1483      V1489   1.899       .  S
O1483      C1493   1.264       .  A
O1484      V1489   1.899       .  S
O1484      C1494   1.264       .  A
O1485      V1490   1.898       .  S
O1485      C1494   1.264       .  A
O1486      V1490   1.899       .  S
O1486      C1493   1.264       .  A
O1487      V1490   1.910       .  S
O1487      C1492   1.267       .  A
O1488      V1490   1.910       .  S
O1488      C1491   1.266       .  A
V1489      V1490   2.088       .  T
C1491      C1535   1.482       .  S
C1493      C1501   1.467       .  S
C1494      C1513   1.466       .  S
C1495      N1496   1.360       .  A
C1495      N1500   1.360       .  A
N1496      C1497   1.358       .  A
C1497      N1498   1.352       .  A
N1498      C1499   1.352       .  A
C1499      N1500   1.358       .  A
C1501      N1502   1.361       .  A
C1501      N1506   1.361       .  A
N1502      C1503   1.358       .  A
C1503      N1504   1.352       .  A
N1504      C1505   1.352       .  A
C1505      N1506   1.358       .  A
C1507      N1508   1.361       .  A
C1507      N1512   1.361       .  A
N1508      C1509   1.358       .  A
C1509      N1510   1.352       .  A
N1510      C1511   1.352       .  A
C1511      N1512   1.358       .  A
C1513      N1514   1.361       .  A
C1513      N1518   1.361       .  A
N1514      C1515   1.358       .  A
C1515      N1516   1.352       .  A
N1516      C1517   1.352       .  A
C1517      N1518   1.358       .  A
C1519      N1520   1.360       .  A
C1519      N1524   1.360       .  A
N1520      C1521   1.358       .  A
C1521      N1522   1.352       .  A
N1522      C1523   1.352       .  A
C1523      N1524   1.358       .  A
C1525      N1526   1.361       .  A
C1525      N1530   1.361       .  A
N1526      C1527   1.358       .  A
C1527      N1528   1.352       .  A
N1528      C1529   1.352       .  A
C1529      N1530   1.358       .  A
N1532      C1533   1.362       .  A
C1535      N1536   1.362       .  A
