geometry optimzed in LAMMPS
_audit_creation_date              2020-12-01 
_audit_creation_method            'lammps2cif' 
_symmetry_space_group_name_H-M    'P1' 
_symmetry_Int_Tables_number       1 
_symmetry_cell_setting            triclinic 
loop_ 
_symmetry_equiv_pos_as_xyz 
  x,y,z 
_cell_length_a                    81.10801176 
_cell_length_b                    81.01104412904002 
_cell_length_c                    81.09685572360551 
_cell_angle_alpha                 89.96992448548747 
_cell_angle_beta                  90.14720651220773 
_cell_angle_gamma                 89.92610828867313 
loop_ 
_atom_site_label 
_atom_site_type_symbol 
_atom_site_fract_x 
_atom_site_fract_y 
_atom_site_fract_z 
_atom_site_charge 
C1          C  0.80629134  0.17674046  0.98690246     0.81000
N2          N  0.79201028  0.18545498  0.98756554    -0.77300
C3          C  0.78437418  0.18833962  0.00208663     0.83500
N4          N  0.79114701  0.18239643  0.01611770    -0.77200
C5          C  0.80540008  0.17367110  0.01580978     0.83600
N6          N  0.81314009  0.17079187  0.00114173    -0.78900
C7          C  0.68682194  0.29807241  0.98685907     0.81000
N8          N  0.69433913  0.28314302  0.98649665    -0.77300
C9          C  0.69915759  0.27556533  0.00054451     0.83500
N10         N  0.69620331  0.28296298  0.01520070    -0.77200
C11         C  0.68868423  0.29794154  0.01587383     0.83600
N12         N  0.68411890  0.30569660  0.00160241    -0.78900
C13         C  0.80305911  0.97511460  0.19329902     0.81000
N14         N  0.78675213  0.97453175  0.19698156    -0.77300
C15         C  0.77677303  0.98774762  0.19460475     0.83500
N16         N  0.78337797  0.00171346  0.18833230    -0.77200
C17         C  0.79952380  0.00250008  0.18413096     0.83600
N18         N  0.80952084  0.98919230  0.18670859    -0.78900
C19         C  0.68617175  0.01053019  0.30482161     0.81000
N20         N  0.68289218  0.99581603  0.31237252    -0.77300
C21         C  0.68409366  0.98153572  0.30355697     0.83500
N22         N  0.68862439  0.98204567  0.28749610    -0.77200
C23         C  0.69157183  0.99655730  0.27982580     0.83600
N24         N  0.69044286  0.01070795  0.28862823    -0.78900
O25         O  0.76477500  0.33670871  0.32213555    -0.73600
O26         O  0.78009488  0.33591184  0.36695505    -0.73700
O27         O  0.77915698  0.35897550  0.34287701    -0.73700
O28         O  0.76576293  0.31373967  0.34647574    -0.73800
O29         O  0.79050064  0.30558942  0.33781076    -0.73700
O30         O  0.80398677  0.35084791  0.33455163    -0.73700
O31         O  0.80483198  0.32771559  0.35844864    -0.73600
O32         O  0.78959791  0.32885927  0.31364326    -0.73700
Ni33       Ni  0.77156250  0.33663279  0.34487842     1.25400
Ni34       Ni  0.79809161  0.32797088  0.33577156     1.25400
C35         C  0.77461339  0.33275661  0.31041237     0.88600
C36         C  0.79500889  0.33167086  0.37013729     0.88500
C37         C  0.79393939  0.36239702  0.33849433     0.88500
C38         C  0.77597452  0.30217860  0.34299453     0.88700
O39         O  0.74338034  0.33595454  0.18036397    -0.73600
O40         O  0.72921574  0.33371332  0.13518839    -0.73700
O41         O  0.73010930  0.35767987  0.15849795    -0.73700
O42         O  0.74250100  0.31218798  0.15697315    -0.73800
O43         O  0.71747376  0.30496236  0.16541746    -0.73700
O44         O  0.70487250  0.35073020  0.16652906    -0.73700
O45         O  0.70411627  0.32639016  0.14335786    -0.73600
O46         O  0.71813746  0.32914526  0.18852523    -0.73700
Ni47       Ni  0.73716721  0.33516584  0.15746624     1.25400
Ni48       Ni  0.71023631  0.32757849  0.16623621     1.25400
C49         C  0.73315753  0.33266495  0.19195737     0.88600
C50         C  0.71441423  0.32935374  0.13175495     0.88500
C51         C  0.71551964  0.36183056  0.16284409     0.88500
C52         C  0.73214130  0.30101136  0.16100326     0.88700
O53         O  0.78484819  0.17826958  0.16680741    -0.73600
O54         O  0.79869747  0.13297295  0.16847088    -0.73700
O55         O  0.79862776  0.15684064  0.14499494    -0.73700
O56         O  0.78497904  0.15448333  0.19019796    -0.73800
O57         O  0.75977457  0.14712791  0.18230870    -0.73700
O58         O  0.77370621  0.14861071  0.13708079    -0.73700
O59         O  0.77345813  0.12518224  0.16091128    -0.73600
O60         O  0.75993728  0.17040393  0.15847827    -0.73700
Ni61       Ni  0.79268174  0.15590930  0.16789138     1.25400
Ni62       Ni  0.76584683  0.14752935  0.15939786     1.25400
C63         C  0.77005284  0.18185709  0.16250818     0.88600
C64         C  0.78832728  0.12158411  0.16492770     0.88500
C65         C  0.78843535  0.15305940  0.13349244     0.88500
C66         C  0.77003357  0.15087123  0.19377598     0.88700
O67         O  0.72051906  0.18079293  0.34228469    -0.73600
O68         O  0.70582220  0.13592950  0.33848940    -0.73700
O69         O  0.70708254  0.15834602  0.36328578    -0.73700
O70         O  0.71924119  0.15825401  0.31752065    -0.73800
O71         O  0.74458531  0.15024425  0.32437739    -0.73700
O72         O  0.73199697  0.14888041  0.36986011    -0.73700
O73         O  0.73124311  0.12719365  0.34441337    -0.73600
O74         O  0.74545664  0.17206032  0.34966708    -0.73700
Ni75       Ni  0.71227030  0.15866597  0.34017817     1.25400
Ni76       Ni  0.73919960  0.14929900  0.34735510     1.25400
C77         C  0.73542204  0.18391634  0.34655321     0.88600
C78         C  0.71623886  0.12418611  0.34045599     0.88500
C79         C  0.71751485  0.15347968  0.37416797     0.88500
C80         C  0.73396193  0.15428330  0.31335376     0.88700
C81         C  0.81979911  0.29979727  0.51524400     0.81000
N82         N  0.80951954  0.28661850  0.51511155    -0.77300
C83         C  0.80245576  0.28143327  0.50091194     0.83500
N84         N  0.80594348  0.28940323  0.48669050    -0.77200
C85         C  0.81610021  0.30268936  0.48661545     0.83600
N86         N  0.82312066  0.30799932  0.50095754    -0.78900
C87         C  0.70254323  0.17004537  0.49198938     0.81000
N88         N  0.71575497  0.18021210  0.49155567    -0.77300
C89         C  0.72154101  0.18750976  0.50537371     0.83500
N90         N  0.71374499  0.18455714  0.51983429    -0.77200
C91         C  0.70036583  0.17451483  0.52055942     0.83600
N92         N  0.69465709  0.16719246  0.50652207    -0.78900
O93         O  0.83947407  0.80459253  0.21908246    -0.73600
O94         O  0.83865421  0.85004337  0.20542110    -0.73700
O95         O  0.86140141  0.82543775  0.20481694    -0.73700
O96         O  0.81673898  0.82911851  0.21959295    -0.73800
O97         O  0.82548626  0.83652494  0.24451042    -0.73700
O98         O  0.87023785  0.83325288  0.22962135    -0.73700
O99         O  0.84729012  0.85758613  0.23033507    -0.73600
O100        O  0.84840157  0.81235496  0.24390156    -0.73700
Ni101      Ni  0.83876774  0.82704270  0.21133279     1.25400
Ni102      Ni  0.84819122  0.83521925  0.23795067     1.25400
C103        C  0.84382940  0.80103022  0.23387960     0.88600
C104        C  0.84269967  0.86138515  0.21567995     0.88500
C105        C  0.87323071  0.82873837  0.21477631     0.88500
C106        C  0.81366239  0.83309690  0.23455773     0.88700
O107        O  0.66771885  0.80521875  0.28941419    -0.73600
O108        O  0.67039798  0.85071793  0.30277596    -0.73700
O109        O  0.64633262  0.82735084  0.30274096    -0.73700
O110        O  0.69178104  0.82860950  0.28947878    -0.73800
O111        O  0.68415134  0.83665477  0.26436181    -0.73700
O112        O  0.63887026  0.83500232  0.27742611    -0.73700
O113        O  0.66269618  0.85837669  0.27759363    -0.73600
O114        O  0.66056881  0.81320593  0.26405020    -0.73700
Ni115      Ni  0.66932206  0.82768026  0.29701785     1.25400
Ni116      Ni  0.66127028  0.83607649  0.26999732     1.25400
C117        C  0.66389464  0.80177803  0.27445111     0.88600
C118        C  0.66704967  0.86212954  0.29230190     0.88500
C119        C  0.63506154  0.83087848  0.29219202     0.88500
C120        C  0.69550387  0.83290818  0.27472606     0.88700
O121        O  0.82309777  0.64709880  0.26765187    -0.73600
O122        O  0.86793283  0.65183726  0.28234238    -0.73700
O123        O  0.84505520  0.62754613  0.28372120    -0.73700
O124        O  0.84592425  0.67142462  0.26619612    -0.73800
O125        O  0.83746817  0.68124928  0.29044276    -0.73700
O126        O  0.83599386  0.63717456  0.30771171    -0.73700
O127        O  0.85901953  0.66134743  0.30647676    -0.73600
O128        O  0.81425229  0.65708566  0.29157702    -0.73700
Ni129      Ni  0.84582189  0.64912898  0.27413276     1.25400
Ni130      Ni  0.83635428  0.65955375  0.29990273     1.25400
C131        C  0.81120401  0.65140744  0.27712904     0.88600
C132        C  0.87089625  0.65725990  0.29691290     0.88500
C133        C  0.84033622  0.62502823  0.29858556     0.88500
C134        C  0.84187006  0.68356079  0.27545678     0.88700
O135        O  0.68209282  0.64834147  0.24172799    -0.73600
O136        O  0.63763092  0.65208319  0.22557391    -0.73700
O137        O  0.66080082  0.62791680  0.22594377    -0.73700
O138        O  0.65892278  0.67249010  0.24149119    -0.73800
O139        O  0.66844462  0.68134037  0.21732272    -0.73700
O140        O  0.67006062  0.63659628  0.20164369    -0.73700
O141        O  0.64709087  0.66095772  0.20144760    -0.73600
O142        O  0.69147048  0.65698960  0.21748483    -0.73700
Ni143      Ni  0.65951825  0.64988857  0.23452564     1.25400
Ni144      Ni  0.66959892  0.65928091  0.20861516     1.25400
C145        C  0.69419011  0.65212524  0.23228919     0.88600
C146        C  0.63496958  0.65720136  0.21082240     0.88500
C147        C  0.66564249  0.62482673  0.21124410     0.88500
C148        C  0.66337663  0.68430753  0.23199713     0.88700
C149        C  0.81919256  0.47856119  0.30970995     0.81000
N150        N  0.81253615  0.47916954  0.29431210    -0.77300
C151        C  0.80984553  0.49383335  0.28673603     0.83500
N152        N  0.81362142  0.50795593  0.29474633    -0.77200
C153        C  0.82033220  0.50760334  0.31005355     0.83600
N154        N  0.82306533  0.49286983  0.31769202    -0.78900
C155        C  0.70128585  0.50839980  0.19150298     0.81000
N156        N  0.69504715  0.49467409  0.18398614    -0.77300
C157        C  0.70429655  0.48060619  0.18341612     0.83500
N158        N  0.71938044  0.48020668  0.19060939    -0.77200
C159        C  0.72550317  0.49365972  0.19828544     0.83600
N160        N  0.71644814  0.50767211  0.19861518    -0.78900
C161        C  0.99100128  0.80306295  0.20435902     0.81000
N162        N  0.00474219  0.80511082  0.19495393    -0.77300
C163        C  0.01990246  0.80186212  0.20157416     0.83500
N164        N  0.02107017  0.79649578  0.21743244    -0.77200
C165        C  0.00740522  0.79450716  0.22677696     0.83600
N166        N  0.99248021  0.79783657  0.22014185    -0.78900
C167        C  0.01407624  0.69616449  0.32820088     0.81000
N168        N  0.99985960  0.68727420  0.32931035    -0.77300
C169        C  0.98513643  0.69475778  0.32590213     0.83500
N170        N  0.98490202  0.71089859  0.32130488    -0.77200
C171        C  0.99903402  0.71973202  0.32012528     0.83600
N172        N  0.01351182  0.71217150  0.32349123    -0.78900
C173        C  0.19119845  0.79248390  0.98175110     0.81000
N174        N  0.18253291  0.79777563  0.99516402    -0.77300
C175        C  0.18110698  0.78766691  0.00853490     0.83500
N176        N  0.18859924  0.77270169  0.00853921    -0.77200
C177        C  0.19732305  0.76739180  0.99539087     0.83600
N178        N  0.19846681  0.77737452  0.98202954    -0.78900
C179        C  0.30880116  0.67275558  0.98822194     0.81000
N180        N  0.31735510  0.66979407  0.00247701    -0.77300
C181        C  0.31005452  0.67314642  0.01731059     0.83500
N182        N  0.29450892  0.67937603  0.01763606    -0.77200
C183        C  0.28606126  0.68231886  0.00354051     0.83600
N184        N  0.29339230  0.67917403  0.98893745    -0.78900
O185        O  0.33830857  0.78608468  0.31077531    -0.73600
O186        O  0.33516502  0.80107039  0.35587335    -0.73700
O187        O  0.35928865  0.80033823  0.33284211    -0.73700
O188        O  0.31391783  0.78684795  0.33383276    -0.73800
O189        O  0.32159975  0.76198965  0.34260073    -0.73700
O190        O  0.36695254  0.77550470  0.34173221    -0.73700
O191        O  0.34278490  0.77611455  0.36441271    -0.73600
O192        O  0.34594525  0.76122816  0.31973281    -0.73700
Ni193      Ni  0.33637676  0.79447141  0.33300142     1.25400
Ni194      Ni  0.34456861  0.76784121  0.34240238     1.25400
C195        C  0.34253644  0.77108820  0.30784281     0.88600
C196        C  0.33875818  0.79106899  0.36763564     0.88500
C197        C  0.37061495  0.79029299  0.33745593     0.88500
C198        C  0.31019948  0.77214805  0.33835434     0.88700
O199        O  0.18019292  0.73970510  0.34199271    -0.73600
O200        O  0.13581606  0.72357584  0.34358923    -0.73700
O201        O  0.16117052  0.72530421  0.36542929    -0.73700
O202        O  0.15486933  0.73784467  0.32012700    -0.73800
O203        O  0.16368474  0.71303036  0.31225514    -0.73700
O204        O  0.16942749  0.70040076  0.35743934    -0.73700
O205        O  0.14426037  0.69878711  0.33543060    -0.73600
O206        O  0.18889975  0.71484771  0.33434934    -0.73700
Ni207      Ni  0.15769799  0.73247662  0.34306869     1.25400
Ni208      Ni  0.16688437  0.70589611  0.33457899     1.25400
C209        C  0.19197032  0.72996875  0.33792671     0.88600
C210        C  0.13260442  0.70857141  0.33978135     0.88500
C211        C  0.16626651  0.71073259  0.36897280     0.88500
C212        C  0.15817837  0.72742920  0.30869457     0.88700
O213        O  0.17984901  0.74892236  0.15448607    -0.73600
O214        O  0.13462449  0.76298822  0.15423619    -0.73700
O215        O  0.15934508  0.76230517  0.13174088    -0.73700
O216        O  0.15518397  0.74942396  0.17693039    -0.73800
O217        O  0.16259045  0.77475297  0.18476235    -0.73700
O218        O  0.16711999  0.78755619  0.13933032    -0.73700
O219        O  0.14239194  0.78816032  0.16191103    -0.73600
O220        O  0.18747235  0.77409280  0.16229086    -0.73700
Ni221      Ni  0.15696210  0.75503435  0.15404843     1.25400
Ni222      Ni  0.16517961  0.78203902  0.16233732     1.25400
C223        C  0.19119825  0.75921913  0.15841445     0.88600
C224        C  0.13097694  0.77780896  0.15840730     0.88500
C225        C  0.16415859  0.77689225  0.12803149     0.88500
C226        C  0.15806755  0.76000733  0.18828790     0.88700
O227        O  0.32189976  0.73416976  0.15586789    -0.73600
O228        O  0.36743964  0.72136320  0.15635350    -0.73700
O229        O  0.34248026  0.71895922  0.13437436    -0.73700
O230        O  0.34684290  0.73674102  0.17805347    -0.73800
O231        O  0.34023843  0.71225792  0.18867302    -0.73700
O232        O  0.33538717  0.69459089  0.14481175    -0.73700
O233        O  0.36054720  0.69695762  0.16683235    -0.73600
O234        O  0.31504184  0.70982221  0.16660783    -0.73700
Ni235      Ni  0.34492536  0.72866817  0.15581420     1.25400
Ni236      Ni  0.33757017  0.70254221  0.16712145     1.25400
C237        C  0.31093769  0.72411955  0.16119739     0.88600
C238        C  0.37152256  0.70691159  0.16139192     0.88500
C239        C  0.33805761  0.70392065  0.13230181     0.88500
C240        C  0.34407763  0.72750249  0.19058715     0.88700
C241        C  0.48817749  0.81175829  0.31210637     0.81000
N242        N  0.50230226  0.81917648  0.31750037    -0.77300
C243        C  0.51684094  0.81578473  0.30975990     0.83500
N244        N  0.51713020  0.80532540  0.29672390    -0.77200
C245        C  0.50312005  0.79819056  0.29121313     0.83600
N246        N  0.48875749  0.80137917  0.29899564    -0.78900
C247        C  0.49018106  0.69340534  0.18465277     0.81000
N248        N  0.50468730  0.68567561  0.18105893    -0.77300
C249        C  0.51900934  0.69138167  0.18783568     0.83500
N250        N  0.51860771  0.70471162  0.19796407    -0.77200
C251        C  0.50427729  0.71250818  0.20141526     0.83600
N252        N  0.49010280  0.70666416  0.19484713    -0.78900
O253        O  0.22020961  0.83238044  0.81182562    -0.73600
O254        O  0.20364510  0.82947635  0.85601762    -0.73700
O255        O  0.20438065  0.85354160  0.83249062    -0.73700
O256        O  0.21956105  0.80855135  0.83525190    -0.73800
O257        O  0.24382027  0.81743021  0.84452813    -0.73700
O258        O  0.22838695  0.86214590  0.84258569    -0.73700
O259        O  0.22792952  0.83783488  0.86570296    -0.73600
O260        O  0.24421303  0.84155943  0.82142228    -0.73700
Ni261      Ni  0.21107058  0.83070969  0.83356972     1.25400
Ni262      Ni  0.23691648  0.84007512  0.84391218     1.25400
C263        C  0.23495031  0.83741982  0.80926399     0.88600
C264        C  0.21316755  0.83276931  0.86821105     0.88500
C265        C  0.21388628  0.86533047  0.83709892     0.88500
C266        C  0.23428521  0.80556689  0.84027894     0.88700
O267        O  0.27252130  0.81513184  0.65763751    -0.73600
O268        O  0.28690363  0.86001234  0.66027994    -0.73700
O269        O  0.28769094  0.83634940  0.63678304    -0.73700
O270        O  0.27186658  0.83896253  0.68135563    -0.73800
O271        O  0.29642265  0.83078983  0.69070735    -0.73700
O272        O  0.31201854  0.82746897  0.64611942    -0.73700
O273        O  0.31146036  0.85180224  0.66935846    -0.73600
O274        O  0.29680293  0.80670951  0.66756611    -0.73700
Ni275      Ni  0.27887949  0.83790200  0.65870522     1.25400
Ni276      Ni  0.30506695  0.82890715  0.66875296     1.25400
C277        C  0.28225743  0.80354361  0.66221976     0.88600
C278        C  0.30149579  0.86343038  0.66522977     0.88500
C279        C  0.30241829  0.83127620  0.63411090     0.88500
C280        C  0.28156535  0.83544269  0.69338898     0.88700
O281        O  0.29378369  0.66258279  0.81106048    -0.73600
O282        O  0.30786703  0.66321554  0.85637854    -0.73700
O283        O  0.30860630  0.64049379  0.83177617    -0.73700
O284        O  0.29302520  0.68525769  0.83569709    -0.73800
O285        O  0.26845148  0.67592963  0.84329320    -0.73700
O286        O  0.28390515  0.63144342  0.83955255    -0.73700
O287        O  0.28327877  0.65398459  0.86406359    -0.73600
O288        O  0.26919139  0.65335056  0.81877264    -0.73700
Ni289      Ni  0.30170280  0.66321716  0.83345132     1.25400
Ni290      Ni  0.27535601  0.65336170  0.84169496     1.25400
C291        C  0.27910627  0.65798237  0.80737081     0.88600
C292        C  0.29798132  0.65853691  0.86776261     0.88500
C293        C  0.29882860  0.62856774  0.83529451     0.88500
C294        C  0.27804342  0.68801446  0.83998365     0.88700
O295        O  0.25206710  0.67427569  0.65343597    -0.73600
O296        O  0.23783841  0.62942821  0.65564962    -0.73700
O297        O  0.23915985  0.65242885  0.63170407    -0.73700
O298        O  0.25070680  0.65113142  0.67755762    -0.73800
O299        O  0.22550397  0.65978641  0.68422125    -0.73700
O300        O  0.21375064  0.66039949  0.63819561    -0.73700
O301        O  0.21257837  0.63751908  0.66260217    -0.73600
O302        O  0.22677841  0.68269679  0.65979169    -0.73700
Ni303      Ni  0.24582025  0.65153562  0.65437615     1.25400
Ni304      Ni  0.21873792  0.66041758  0.66143475     1.25400
C305        C  0.24181878  0.68598413  0.65622243     0.88600
C306        C  0.22288250  0.62597666  0.65932465     0.88500
C307        C  0.22449916  0.65644908  0.62731596     0.88500
C308        C  0.24003947  0.65517499  0.68847876     0.88700
C309        C  0.32726992  0.80561078  0.51716752     0.81000
N310        N  0.32198696  0.78977117  0.51833562    -0.77300
C311        C  0.31996579  0.78038958  0.50468205     0.83500
N312        N  0.32317296  0.78701397  0.48973657    -0.77200
C313        C  0.32836552  0.80284031  0.48824245     0.83600
N314        N  0.33033622  0.81233325  0.50201548    -0.78900
C315        C  0.21381595  0.68639157  0.48093482     0.81000
N316        N  0.20789445  0.67857494  0.49460443    -0.77300
C317        C  0.21785433  0.67672130  0.50805296     0.83500
N318        N  0.23336295  0.68289224  0.50786721    -0.77200
C319        C  0.23927321  0.69092203  0.49449589     0.83600
N320        N  0.22931836  0.69270766  0.48119010    -0.78900
O321        O  0.81282300  0.20655982  0.83738109    -0.73600
O322        O  0.85770168  0.19054116  0.83612090    -0.73700
O323        O  0.83342348  0.19131303  0.85925969    -0.73700
O324        O  0.83696163  0.20547759  0.81427956    -0.73800
O325        O  0.84611057  0.22998722  0.82266096    -0.73700
O326        O  0.84210106  0.21589329  0.86776670    -0.73700
O327        O  0.86631523  0.21502695  0.84490319    -0.73600
O328        O  0.82194163  0.23110049  0.84557765    -0.73700
Ni329      Ni  0.83490864  0.19758518  0.83648012     1.25400
Ni330      Ni  0.84443274  0.22384281  0.84553290     1.25400
C331        C  0.80999856  0.22163874  0.84139514     0.88600
C332        C  0.86949588  0.20020638  0.84038515     0.88500
C333        C  0.83715458  0.20121896  0.87101256     0.88500
C334        C  0.84209955  0.22006321  0.81100263     0.88700
O335        O  0.65920910  0.26447310  0.81937267    -0.73600
O336        O  0.66125182  0.27916881  0.86418970    -0.73700
O337        O  0.63841879  0.28049067  0.83975521    -0.73700
O338        O  0.68209868  0.26285774  0.84366436    -0.73800
O339        O  0.69263520  0.28673242  0.83532955    -0.73700
O340        O  0.64861835  0.30458098  0.83150088    -0.73700
O341        O  0.67172667  0.30313273  0.85594738    -0.73600
O342        O  0.66939666  0.28849264  0.81096098    -0.73700
Ni343      Ni  0.65991129  0.27092922  0.84206944     1.25400
Ni344      Ni  0.67099718  0.29660362  0.83316912     1.25400
C345        C  0.66360943  0.27413667  0.80768611     0.88600
C346        C  0.66678465  0.29360862  0.86754224     0.88500
C347        C  0.63619930  0.29529356  0.83462740     0.88500
C348        C  0.69465115  0.27171685  0.84007024     0.88700
O349        O  0.84585101  0.24912845  0.68039727    -0.73600
O350        O  0.84487479  0.26385026  0.63552154    -0.73700
O351        O  0.86785129  0.26350937  0.65969053    -0.73700
O352        O  0.82274079  0.24952940  0.65616921    -0.73800
O353        O  0.81444642  0.27438545  0.66426811    -0.73700
O354        O  0.85943695  0.28825870  0.66807114    -0.73700
O355        O  0.83650620  0.28867259  0.64366284    -0.73600
O356        O  0.83737877  0.27386723  0.68869217    -0.73700
Ni357      Ni  0.84561724  0.25562945  0.65765146     1.25400
Ni358      Ni  0.83665387  0.28217722  0.66646555     1.25400
C359        C  0.84169025  0.25898157  0.69201872     0.88600
C360        C  0.84050714  0.27865487  0.63209426     0.88500
C361        C  0.87112020  0.27819705  0.66454995     0.88500
C362        C  0.81108046  0.25963263  0.65965690     0.88700
O363        O  0.65558966  0.24037139  0.67773898    -0.73600
O364        O  0.65881568  0.22115202  0.63448455    -0.73700
O365        O  0.63421422  0.22515413  0.65668453    -0.73700
O366        O  0.67999227  0.23656203  0.65540278    -0.73800
O367        O  0.68633784  0.21252164  0.66718944    -0.73700
O368        O  0.64040105  0.20061001  0.66733899    -0.73700
O369        O  0.66572384  0.19712318  0.64580472    -0.73600
O370        O  0.66121014  0.21585733  0.68875605    -0.73700
Ni371      Ni  0.65689081  0.23166452  0.65567450     1.25400
Ni372      Ni  0.66361683  0.20566736  0.66766315     1.25400
C373        C  0.65804315  0.23125814  0.69045169     0.88600
C374        C  0.66296155  0.20592367  0.63298960     0.88500
C375        C  0.62966389  0.21098096  0.66202797     0.88500
C376        C  0.69071567  0.22656920  0.66134922     0.88700
C377        C  0.49290253  0.32231100  0.79250385     0.81000
N378        N  0.50704140  0.32125723  0.80163308    -0.77300
C379        C  0.52107000  0.31519029  0.79451925     0.83500
N380        N  0.52068083  0.31025298  0.77850901    -0.77200
C381        C  0.50663608  0.31107334  0.76946944     0.83600
N382        N  0.49280631  0.31699391  0.77665169    -0.78900
C383        C  0.47959044  0.20323996  0.67384072     0.81000
N384        N  0.49419437  0.19617198  0.66925400    -0.77300
C385        C  0.50839413  0.20512048  0.67035909     0.83500
N386        N  0.50795659  0.22073630  0.67625561    -0.77200
C387        C  0.49359035  0.22791153  0.68071268     0.83600
N388        N  0.47948629  0.21903298  0.67952714    -0.78900
C389        C  0.19354556  0.98345898  0.80675321     0.81000
N390        N  0.18714644  0.99772953  0.81307972    -0.77300
C391        C  0.19037193  0.01239215  0.80538544     0.83500
N392        N  0.19986074  0.01264564  0.79164903    -0.77200
C393        C  0.20600345  0.99852287  0.78524954     0.83600
N394        N  0.20288688  0.98402562  0.79291227    -0.78900
C395        C  0.31564281  0.01088692  0.68422638     0.81000
N396        N  0.32257329  0.99617757  0.67989182    -0.77300
C397        C  0.31541722  0.98185423  0.68502165     0.83500
N398        N  0.30153996  0.98235770  0.69430037    -0.77200
C399        C  0.29454004  0.99691995  0.69853117     0.83600
N400        N  0.30176399  0.01110324  0.69352986    -0.78900
C401        C  0.01809496  0.19403726  0.82039997     0.81000
N402        N  0.01805897  0.20993218  0.81511320    -0.77300
C403        C  0.00386568  0.21835269  0.81270945     0.83500
N404        N  0.98941189  0.21054259  0.81555453    -0.77200
C405        C  0.98900641  0.19464902  0.82084130     0.83600
N406        N  0.00342920  0.18625245  0.82330177    -0.78900
C407        C  0.98440498  0.30853263  0.69944480     0.81000
N408        N  0.98413235  0.30192562  0.71482715    -0.77300
C409        C  0.99816262  0.29948225  0.72351284     0.83500
N410        N  0.01271293  0.30400528  0.71680824    -0.77200
C411        C  0.01333964  0.31084536  0.70154619     0.83600
N412        N  0.99915093  0.31301643  0.69271488    -0.78900
O413        O  0.31592585  0.33436762  0.77997875    -0.73600
O414        O  0.36147307  0.33087661  0.79297690    -0.73700
O415        O  0.33865574  0.35565637  0.79275583    -0.73700
O416        O  0.33862457  0.30988914  0.78019603    -0.73800
O417        O  0.34650641  0.31690735  0.75490890    -0.73700
O418        O  0.34601273  0.36244310  0.76721748    -0.73700
O419        O  0.36891106  0.33813089  0.76760080    -0.73600
O420        O  0.32353987  0.34094816  0.75448557    -0.73700
Ni421      Ni  0.33840462  0.33249042  0.78741016     1.25400
Ni422      Ni  0.34651903  0.33989782  0.76019326     1.25400
C423        C  0.31218599  0.33763807  0.76494791     0.88600
C424        C  0.37275893  0.33365838  0.78227781     0.88500
C425        C  0.34220799  0.36665261  0.78194730     0.88500
C426        C  0.34246729  0.30582723  0.76541692     0.88700
O427        O  0.15776183  0.17866573  0.76180771    -0.73600
O428        O  0.15834590  0.13347370  0.77588758    -0.73700
O429        O  0.13594353  0.15838735  0.77691618    -0.73700
O430        O  0.18013149  0.15389735  0.76070259    -0.73800
O431        O  0.18990700  0.16155067  0.78524232    -0.73700
O432        O  0.14560440  0.16601816  0.80146502    -0.73700
O433        O  0.16820562  0.14105493  0.80032128    -0.73600
O434        O  0.16730741  0.18642697  0.78632565    -0.73700
Ni435      Ni  0.15769180  0.15581015  0.76799078     1.25400
Ni436      Ni  0.16809901  0.16402245  0.79422147     1.25400
C437        C  0.16249046  0.19007395  0.77169257     0.88600
C438        C  0.16359431  0.12968004  0.79031784     0.88500
C439        C  0.13342579  0.16325996  0.79173417     0.88500
C440        C  0.19231910  0.15701059  0.77029115     0.88700
O441        O  0.15767840  0.31991944  0.73974668    -0.73600
O442        O  0.15969687  0.36436203  0.72348421    -0.73700
O443        O  0.13585375  0.34098263  0.72521261    -0.73700
O444        O  0.18138755  0.34331696  0.73793853    -0.73800
O445        O  0.18877761  0.33412939  0.71318643    -0.73700
O446        O  0.14315251  0.33160210  0.70052471    -0.73700
O447        O  0.16694274  0.35502982  0.69871621    -0.73600
O448        O  0.16500942  0.31063909  0.71500545    -0.73700
Ni449      Ni  0.15836572  0.34247877  0.73245602     1.25400
Ni450      Ni  0.16620856  0.33250995  0.70598032     1.25400
C451        C  0.16134393  0.30791373  0.73012962     0.88600
C452        C  0.16370760  0.36706085  0.70844452     0.88500
C453        C  0.13191438  0.33593534  0.71075474     0.88500
C454        C  0.19265444  0.33921380  0.72766831     0.88700
O455        O  0.31097969  0.15893810  0.71078862    -0.73600
O456        O  0.35485201  0.16576225  0.69443636    -0.73700
O457        O  0.33340628  0.13998663  0.69459697    -0.73700
O458        O  0.33245649  0.18453049  0.71066723    -0.73800
O459        O  0.34296992  0.17604597  0.73461462    -0.73700
O460        O  0.34348781  0.13160115  0.71875993    -0.73700
O461        O  0.36512917  0.15703325  0.71836484    -0.73600
O462        O  0.32127172  0.15085496  0.73500374    -0.73700
Ni463      Ni  0.33255701  0.16257234  0.70175122     1.25400
Ni464      Ni  0.34358283  0.15354269  0.72751236     1.25400
C465        C  0.30888476  0.15410151  0.72569123     0.88600
C466        C  0.36727603  0.16277599  0.70379265     0.88500
C467        C  0.33867160  0.12842188  0.70404037     0.88500
C468        C  0.33746153  0.18762573  0.72535164     0.88700
C469        C  0.32831670  0.48579995  0.79526679     0.81000
N470        N  0.32168247  0.48679872  0.77995461    -0.77300
C471        C  0.31337457  0.50039855  0.77495713     0.83500
N472        N  0.31180554  0.51318883  0.78555492    -0.77200
C473        C  0.31844614  0.51255579  0.80092712     0.83600
N474        N  0.32674694  0.49874211  0.80591799    -0.78900
C475        C  0.21142190  0.50561557  0.67290081     0.81000
N476        N  0.22743069  0.50441834  0.67757619    -0.77300
C477        C  0.23346139  0.49048425  0.68453864     0.83500
N478        N  0.22303874  0.47767282  0.68702793    -0.77200
C479        C  0.20688785  0.47868127  0.68270157     0.83600
N480        N  0.20095538  0.49278504  0.67566331    -0.78900
C481        C  0.28338518  0.50874757  0.73978079    -0.13600
C482        C  0.28798111  0.49645799  0.72856380     0.16800
C483        C  0.30211948  0.48676708  0.73167312     0.03100
C484        C  0.31057578  0.48888135  0.74664888    -0.12100
C485        C  0.30543070  0.50058978  0.75842593    -0.03100
C486        C  0.29194970  0.51103333  0.75456012     0.02400
C487        C  0.27651209  0.49303484  0.71482594     0.09200
N488        N  0.30774050  0.47455268  0.72006325     0.65500
H489        H  0.32116487  0.48112361  0.74920837     0.18500
N490        N  0.28608630  0.52336104  0.76575954     0.76000
H491        H  0.27256685  0.51624435  0.73731785     0.10000
C492        C  0.26723091  0.47830980  0.71412004     0.03700
C493        C  0.25438305  0.47702553  0.70261504    -0.05000
C494        C  0.25017918  0.49030666  0.69220207    -0.23400
C495        C  0.26071815  0.50426011  0.69179660     0.12900
C496        C  0.27356237  0.50553248  0.70328218    -0.12600
N497        N  0.26975877  0.46509403  0.72570981     0.64600
H498        H  0.24674007  0.46608301  0.70292730     0.12400
N499        N  0.25831621  0.51748930  0.68028345     0.61200
H500        H  0.28105026  0.51660054  0.70354790     0.08600
O501        O  0.27123066  0.52304174  0.77035018    -0.40200
O502        O  0.29436287  0.53637970  0.76785589    -0.39400
O503        O  0.30581178  0.47672057  0.70476087    -0.39400
O504        O  0.31574992  0.46210529  0.72498436    -0.37100
O505        O  0.25946566  0.53226077  0.68507288    -0.38000
O506        O  0.25760078  0.51447777  0.66502712    -0.34200
O507        O  0.27131393  0.46810435  0.74090654    -0.35600
O508        O  0.26828889  0.45029505  0.72106626    -0.39900
C509        C  0.16220292  0.41394935  0.70612659    -0.13600
C510        C  0.17430631  0.41703284  0.69421794     0.16800
C511        C  0.18161243  0.40364663  0.68575037     0.03100
C512        C  0.17695982  0.38747506  0.68984596    -0.12100
C513        C  0.16552080  0.38429848  0.70244658    -0.03100
C514        C  0.15749836  0.39777213  0.71015650     0.02400
C515        C  0.17998895  0.43422346  0.69174244     0.09200
N516        N  0.19437928  0.40611600  0.67369982     0.65500
H517        H  0.18320139  0.37727080  0.68388816     0.18500
N518        N  0.14437776  0.39529164  0.72176756     0.76000
H519        H  0.15637888  0.42426893  0.71231440     0.10000
C520        C  0.17793056  0.44269765  0.67662937     0.03700
C521        C  0.18602445  0.45786349  0.67424963    -0.05000
C522        C  0.19600332  0.46465413  0.68666183    -0.23400
C523        C  0.19719882  0.45660197  0.70212444     0.12900
C524        C  0.18920763  0.44147449  0.70441775    -0.12600
N525        N  0.16816525  0.43583156  0.66351725     0.64600
H526        H  0.18507760  0.46405691  0.66243921     0.12400
N527        N  0.20664314  0.46347854  0.71550547     0.61200
H528        H  0.19059728  0.43501431  0.71604868     0.08600
O529        O  0.13317261  0.38492112  0.71872471    -0.40200
O530        O  0.14263610  0.40502464  0.73379454    -0.39400
O531        O  0.20561098  0.41662292  0.67611448    -0.39400
O532        O  0.19557833  0.39644611  0.66155618    -0.37100
O533        O  0.20616286  0.47877950  0.71842597    -0.38000
O534        O  0.21425654  0.45410807  0.72538174    -0.34200
O535        O  0.15473483  0.42862942  0.66663509    -0.35600
O536        O  0.17236579  0.43790884  0.64868152    -0.39900
C537        C  0.23859682  0.14940015  0.76697295    -0.13600
C538        C  0.24207368  0.15613701  0.75137651     0.16800
C539        C  0.22889715  0.16262102  0.74183899     0.03100
C540        C  0.21273486  0.16199787  0.74805658    -0.12100
C541        C  0.20938407  0.15572222  0.76383663    -0.03100
C542        C  0.22250250  0.14924055  0.77337925     0.02400
C543        C  0.25938667  0.15551070  0.74503701     0.09200
N544        N  0.23172637  0.17047391  0.72618666     0.65500
H545        H  0.20276878  0.16724282  0.74082944     0.18500
N546        N  0.21968128  0.14194733  0.78928687     0.76000
H547        H  0.24849231  0.14394499  0.77413287     0.10000
C548        C  0.27294802  0.16119680  0.75451183     0.03700
C549        C  0.28902288  0.15955387  0.74826244    -0.05000
C550        C  0.29194922  0.15305863  0.73249175    -0.23400
C551        C  0.27846731  0.14726805  0.72305261     0.12900
C552        C  0.26242754  0.14840589  0.72950944    -0.12600
N553        N  0.27062825  0.16937173  0.77007685     0.64600
H554        H  0.29927581  0.16433960  0.75538282     0.12400
N555        N  0.28084334  0.13984478  0.70713655     0.61200
H556        H  0.25221102  0.14353109  0.72240701     0.08600
O557        O  0.23024017  0.14358521  0.80063361    -0.40200
O558        O  0.20767512  0.13228951  0.79146414    -0.39400
O559        O  0.22113126  0.16933306  0.71481101    -0.39400
O560        O  0.24382543  0.18007679  0.72429883    -0.37100
O561        O  0.29248215  0.12974332  0.70484188    -0.38000
O562        O  0.27033791  0.14203984  0.69582802    -0.34200
O563        O  0.28111851  0.16761536  0.78147595    -0.35600
O564        O  0.25921634  0.17983537  0.77182817    -0.39900
C565        C  0.16756538  0.23707815  0.76945174    -0.13600
C566        C  0.15884815  0.24073137  0.75495519     0.16800
C567        C  0.15161038  0.22779114  0.74588855     0.03100
C568        C  0.15323936  0.21147387  0.75149656    -0.12100
C569        C  0.16199493  0.20763657  0.76604005    -0.03100
C570        C  0.16951539  0.22072175  0.77494136     0.02400
C571        C  0.15898283  0.25790099  0.74855297     0.09200
N572        N  0.14241776  0.23105369  0.73108428     0.65500
H573        H  0.14729593  0.20174931  0.74452375     0.18500
N574        N  0.17992474  0.21768025  0.78895390     0.76000
H575        H  0.17359067  0.24698230  0.77611342     0.10000
C576        C  0.15059233  0.27076234  0.75666157     0.03700
C577        C  0.15182528  0.28698481  0.75067793    -0.05000
C578        C  0.16125256  0.29068928  0.73659219    -0.23400
C579        C  0.17005407  0.27774303  0.72876275     0.12900
C580        C  0.16855652  0.26151964  0.73466570    -0.12600
N581        N  0.14041174  0.26742925  0.77067629     0.64600
H582        H  0.14497732  0.29666329  0.75683868     0.12400
N583        N  0.18126638  0.28089161  0.71545815     0.61200
H584        H  0.17543226  0.25169998  0.72875329     0.08600
O585        O  0.17878905  0.22675910  0.80154908    -0.40200
O586        O  0.19223431  0.20823260  0.78754635    -0.39400
O587        O  0.14392100  0.22170136  0.71873314    -0.39400
O588        O  0.13191305  0.24256328  0.73069012    -0.37100
O589        O  0.19243223  0.29161589  0.71712083    -0.38000
O590        O  0.18185593  0.27114019  0.70333568    -0.34200
O591        O  0.14231818  0.27554435  0.78382080    -0.35600
O592        O  0.12875705  0.25717219  0.76958067    -0.39900
C593        C  0.34133080  0.41357290  0.77916363    -0.13600
C594        C  0.34477038  0.41823141  0.79549265     0.16800
C595        C  0.34673698  0.40578914  0.80760094     0.03100
C596        C  0.34527604  0.38907546  0.80296468    -0.12100
C597        C  0.34217111  0.38445394  0.78651166    -0.03100
C598        C  0.33995307  0.39698621  0.77453739     0.02400
C599        C  0.34459812  0.43623232  0.79942146     0.09200
N600        N  0.35066802  0.40981414  0.82443511     0.65500
H601        H  0.34718770  0.37958647  0.81218505     0.18500
N602        N  0.33559172  0.39321731  0.75778204     0.76000
H603        H  0.33912272  0.42301694  0.76994944     0.10000
C604        C  0.35351933  0.44760025  0.78962841     0.03700
C605        C  0.34900178  0.46432606  0.78981256    -0.05000
C606        C  0.33619140  0.47005726  0.79986922    -0.23400
C607        C  0.32868835  0.45910219  0.81107240     0.12900
C608        C  0.33296230  0.44228747  0.81075955    -0.12600
N609        N  0.36651721  0.44219585  0.77883154     0.64600
H610        H  0.35489024  0.47282824  0.78136323     0.12400
N611        N  0.31550708  0.46443701  0.82151861     0.61200
H612        H  0.32601891  0.43371962  0.81828094     0.08600
O613        O  0.34225212  0.40101517  0.74608094    -0.40200
O614        O  0.32340260  0.38401031  0.75476657    -0.39400
O615        O  0.34585422  0.40059216  0.83601399    -0.39400
O616        O  0.36017844  0.42169945  0.82771883    -0.37100
O617        O  0.31624110  0.46174914  0.83683266    -0.38000
O618        O  0.30228417  0.46984525  0.81528605    -0.34200
O619        O  0.36956735  0.44999421  0.76570412    -0.35600
O620        O  0.37576472  0.43032676  0.78293310    -0.39900
C621        C  0.23236462  0.34822698  0.75153923    -0.13600
C622        C  0.24379643  0.33846728  0.74303178     0.16800
C623        C  0.23852987  0.32931843  0.72913904     0.03100
C624        C  0.22193465  0.33025224  0.72411251    -0.12100
C625        C  0.21036288  0.33993211  0.73269331    -0.03100
C626        C  0.21584733  0.34933201  0.74640040     0.02400
C627        C  0.26130418  0.33868101  0.74852854     0.09200
N628        N  0.24969866  0.31878023  0.72025068     0.65500
H629        H  0.21792838  0.32286872  0.71371882     0.18500
N630        N  0.20510674  0.36062187  0.75479437     0.76000
H631        H  0.23649859  0.35554123  0.76194115     0.10000
C632        C  0.27384568  0.34610401  0.73900626     0.03700
C633        C  0.29027583  0.34541973  0.74457854    -0.05000
C634        C  0.29458229  0.33750314  0.75944897    -0.23400
C635        C  0.28196299  0.32966842  0.76866160     0.12900
C636        C  0.26550815  0.33071529  0.76329654    -0.12600
N637        N  0.27013106  0.35451403  0.72381434     0.64600
H638        H  0.29972916  0.35144632  0.73734574     0.12400
N639        N  0.28564220  0.31977017  0.78288475     0.61200
H640        H  0.25595167  0.32462558  0.77035393     0.08600
O641        O  0.19731751  0.37143945  0.74669417    -0.40200
O642        O  0.20552605  0.36161649  0.77032503    -0.39400
O643        O  0.26037371  0.31033037  0.72785635    -0.39400
O644        O  0.24788165  0.31664956  0.70493162    -0.37100
O645        O  0.27673539  0.32087052  0.79558003    -0.38000
O646        O  0.29567527  0.30790006  0.78169606    -0.34200
O647        O  0.25747677  0.36352875  0.72259852    -0.35600
O648        O  0.28021293  0.35404844  0.71198689    -0.39900
C649        C  0.33857199  0.25879130  0.76528572    -0.13600
C650        C  0.34070672  0.25524218  0.74848525     0.16800
C651        C  0.34322086  0.26835889  0.73728044     0.03100
C652        C  0.34367111  0.28462338  0.74318038    -0.12100
C653        C  0.34198962  0.28823365  0.76007523    -0.03100
C654        C  0.33942119  0.27502442  0.77120458     0.02400
C655        C  0.33987042  0.23780536  0.74286298     0.09200
N656        N  0.34562293  0.26541812  0.71996570     0.65500
H657        H  0.34559147  0.29451611  0.73441485     0.18500
N658        N  0.33794073  0.27775009  0.78856442     0.76000
H659        H  0.33647080  0.24881367  0.77392699     0.10000
C660        C  0.35041943  0.22551958  0.74940662     0.03700
C661        C  0.34887683  0.20918932  0.74387837    -0.05000
C662        C  0.33731633  0.20480471  0.73170641    -0.23400
C663        C  0.32649819  0.21705283  0.72547275     0.12900
C664        C  0.32796018  0.23336897  0.73108926    -0.12600
N665        N  0.36312183  0.22945489  0.76116921     0.64600
H666        H  0.35731483  0.19996503  0.74864004     0.12400
N667        N  0.31360927  0.21311473  0.71396136     0.61200
H668        H  0.31952975  0.24266300  0.72644272     0.08600
O669        O  0.35050008  0.28168155  0.79689670    -0.40200
O670        O  0.32479351  0.27387723  0.79589245    -0.39400
O671        O  0.33960017  0.27523928  0.70945595    -0.39400
O672        O  0.35501501  0.25396006  0.71515824    -0.37100
O673        O  0.30389296  0.20131334  0.71689542    -0.38000
O674        O  0.31037575  0.22285717  0.70223077    -0.34200
O675        O  0.36685082  0.21927089  0.77236911    -0.35600
O676        O  0.37182665  0.24223704  0.75937889    -0.39900
C677        C  0.05091292  0.33645442  0.69285894    -0.13600
C678        C  0.06332769  0.32445288  0.69468728     0.16800
C679        C  0.05884746  0.30761079  0.69582686     0.03100
C680        C  0.04211328  0.30332050  0.69582509    -0.12100
C681        C  0.02971798  0.31538818  0.69511930    -0.03100
C682        C  0.03415920  0.33203447  0.69288333     0.02400
C683        C  0.08073914  0.32973101  0.69684480     0.09200
N684        N  0.07094460  0.29485034  0.69835310     0.65500
H685        H  0.03871471  0.29054977  0.69790338     0.18500
N686        N  0.02181880  0.34464826  0.69199026     0.76000
H687        H  0.05426508  0.34936369  0.69190590     0.10000
C688        C  0.09346536  0.32435493  0.68621777     0.03700
C689        C  0.11000749  0.32685753  0.69089982    -0.05000
C690        C  0.11419192  0.33475526  0.70581093    -0.23400
C691        C  0.10129428  0.34094497  0.71579411     0.12900
C692        C  0.08483902  0.33840040  0.71122478    -0.12600
N693        N  0.08982693  0.31605406  0.67093178     0.64600
H694        H  0.11968465  0.32236339  0.68289549     0.12400
N695        N  0.10458029  0.34947447  0.73086223     0.61200
H696        H  0.07514854  0.34254769  0.71942686     0.08600
O697        O  0.01165022  0.34479692  0.68018465    -0.40200
O698        O  0.02184242  0.35634748  0.70225818    -0.39400
O699        O  0.08234018  0.29672268  0.70881854    -0.39400
O700        O  0.06894984  0.28085027  0.69181970    -0.37100
O701        O  0.10464736  0.36504606  0.73101103    -0.38000
O702        O  0.10427995  0.34167180  0.74432930    -0.34200
O703        O  0.07697759  0.31958966  0.66284131    -0.35600
O704        O  0.10003827  0.30599764  0.66484032    -0.39900
C705        C  0.05334212  0.16445345  0.81142061    -0.13600
C706        C  0.06691114  0.17446096  0.81545512     0.16800
C707        C  0.06417135  0.18964086  0.82361094     0.03100
C708        C  0.04794182  0.19478574  0.82665001    -0.12100
C709        C  0.03430436  0.18552344  0.82126044    -0.03100
C710        C  0.03707959  0.16985238  0.81416377     0.02400
C711        C  0.08363248  0.16968019  0.80966448     0.09200
N712        N  0.07753643  0.20050641  0.82789652     0.65500
H713        H  0.04593360  0.20678505  0.83220043     0.18500
N714        N  0.02368199  0.15988703  0.80841840     0.76000
H715        H  0.05539089  0.15279060  0.80521408     0.10000
C716        C  0.09664791  0.16611649  0.82071351     0.03700
C717        C  0.11277614  0.16425619  0.81460102    -0.05000
C718        C  0.11622910  0.16579169  0.79766431    -0.23400
C719        C  0.10311273  0.16951856  0.78668204     0.12900
C720        C  0.08699809  0.17103980  0.79277474    -0.12600
N721        N  0.09369042  0.16446542  0.83809543     0.64600
H722        H  0.12265578  0.16133610  0.82313500     0.12400
N723        N  0.10602831  0.17304031  0.76957723     0.61200
H724        H  0.07712634  0.17439134  0.78437724     0.08600
O725        O  0.02255554  0.14505959  0.81305718    -0.40200
O726        O  0.01452148  0.16502872  0.79690007    -0.39400
O727        O  0.08900771  0.20326643  0.81777338    -0.39400
O728        O  0.07677126  0.20904404  0.84089337    -0.37100
O729        O  0.09613764  0.16779148  0.75874527    -0.34400
O730        O  0.11669850  0.18363839  0.76556815    -0.34200
O731        O  0.08110749  0.15689934  0.84322691    -0.35600
O732        O  0.10418693  0.16962892  0.84838555    -0.39900
C733        C  0.01607201  0.25520641  0.78648893    -0.13600
C734        C  0.00083012  0.26318539  0.78457408     0.16800
C735        C  0.98727842  0.25799876  0.79420996     0.03100
C736        C  0.98889700  0.24384710  0.80409045    -0.12100
C737        C  0.00386683  0.23507872  0.80506768    -0.03100
C738        C  0.01787498  0.24161108  0.79696676     0.02400
C739        C  0.99876912  0.27470503  0.77045011     0.09200
N740        N  0.97176301  0.26665797  0.79372932     0.65500
H741        H  0.97824443  0.23945425  0.81077369     0.18500
N742        N  0.03388686  0.23431687  0.79864143     0.76000
H743        H  0.02655811  0.25913357  0.77926664     0.10000
C744        C  0.01020911  0.28744257  0.76706763     0.03700
C745        C  0.00968518  0.29536232  0.75165647    -0.05000
C746        C  0.99776499  0.29120580  0.73976537    -0.23400
C747        C  0.98586567  0.27906292  0.74355303     0.12900
C748        C  0.98652936  0.27099612  0.75876364    -0.12600
N749        N  0.02233079  0.29245438  0.77905818     0.64600
H750        H  0.01854021  0.30497191  0.74898204     0.12400
N751        N  0.97379414  0.27382073  0.73172099     0.61200
H752        H  0.97802499  0.26096646  0.76101900     0.08600
O753        O  0.04137005  0.23523692  0.81227661    -0.40200
O754        O  0.04169841  0.22981402  0.78597268    -0.39400
O755        O  0.95844893  0.25907607  0.79644222    -0.39400
O756        O  0.97138541  0.28212467  0.79182161    -0.37100
O757        O  0.97834646  0.26776521  0.71813049    -0.38000
O758        O  0.95883286  0.27281009  0.73584504    -0.34200
O759        O  0.03593957  0.29842025  0.77445381    -0.35600
O760        O  0.01897606  0.29224018  0.79425199    -0.39900
C761        C  0.34288650  0.04793206  0.68861149    -0.13600
C762        C  0.33196418  0.06038174  0.68340529     0.16800
C763        C  0.31737319  0.05595639  0.67499077     0.03100
C764        C  0.31322368  0.03924425  0.67345260    -0.12100
C765        C  0.32330080  0.02687514  0.68023643    -0.03100
C766        C  0.33866968  0.03122386  0.68704930     0.02400
C767        C  0.33488022  0.07767061  0.68865459     0.09200
N768        N  0.30588684  0.06821958  0.66939805     0.65500
H769        H  0.30131756  0.03598330  0.66831120     0.18500
N770        N  0.34915728  0.01896433  0.69420205     0.76000
H771        H  0.35419920  0.05123653  0.69492687     0.10000
C772        C  0.33484365  0.08195580  0.70554123     0.03700
C773        C  0.33695441  0.09848787  0.71010893    -0.05000
C774        C  0.33866944  0.11102197  0.69826207    -0.23400
C775        C  0.33925376  0.10664877  0.68134574     0.12900
C776        C  0.33718455  0.09003137  0.67676105    -0.12600
N777        N  0.33183390  0.06986090  0.71816850     0.64600
H778        H  0.33633410  0.10166141  0.72306749     0.12400
N779        N  0.34244080  0.11871560  0.66876159     0.61200
H780        H  0.33751167  0.08666658  0.66383746     0.08600
O781        O  0.34924867  0.01678615  0.70960954    -0.40200
O782        O  0.35920416  0.01115968  0.68526109    -0.39400
O783        O  0.30022575  0.06753513  0.65490420    -0.39400
O784        O  0.29990618  0.07850711  0.67943243    -0.37100
O785        O  0.35410067  0.12888540  0.67050616    -0.38000
O786        O  0.33528672  0.11768511  0.65495563    -0.34200
O787        O  0.33936597  0.07074972  0.73178094    -0.35600
O788        O  0.32028446  0.05954247  0.71657413    -0.39900
C789        C  0.18838692  0.05775115  0.81436566    -0.13600
C790        C  0.17192595  0.06122682  0.81026172     0.16800
C791        C  0.16088148  0.04796870  0.80758620     0.03100
C792        C  0.16684605  0.03163492  0.80804343    -0.12100
C793        C  0.18355118  0.02829258  0.81107032    -0.03100
C794        C  0.19433385  0.04147528  0.81478933     0.02400
C795        C  0.16746858  0.07864101  0.80624350     0.09200
N796        N  0.14384305  0.05093387  0.80365808     0.65500
H797        H  0.15865483  0.02155680  0.80490110     0.18500
N798        N  0.21155017  0.03854976  0.81797606     0.76000
H799        H  0.19689296  0.06785876  0.81636206     0.10000
C800        C  0.16992657  0.09170789  0.81753890     0.03700
C801        C  0.16847237  0.10814712  0.81203292    -0.05000
C802        C  0.16453467  0.11196576  0.79552517    -0.23400
C803        C  0.16166638  0.09873540  0.78443170     0.12900
C804        C  0.16301007  0.08237742  0.78994310    -0.12600
N805        N  0.17383072  0.08850952  0.83456914     0.64600
H806        H  0.17039934  0.11803978  0.82079434     0.12400
N807        N  0.15831812  0.10151773  0.76730490     0.61200
H808        H  0.16150054  0.07245455  0.78111284     0.08600
O809        O  0.22223985  0.04889760  0.81341441    -0.40200
O810        O  0.21608483  0.02601524  0.82606954    -0.39400
O811        O  0.13635592  0.04165549  0.79363164    -0.39400
O812        O  0.13595339  0.06225711  0.81086937    -0.37100
O813        O  0.16947991  0.10730867  0.75816022    -0.38000
O814        O  0.14568025  0.09518435  0.76077570    -0.34200
O815        O  0.18235700  0.09867889  0.84272621    -0.35600
O816        O  0.16768400  0.07622756  0.84190243    -0.39900
C817        C  0.22946200  0.98634707  0.74671883    -0.13600
C818        C  0.24139100  0.99888265  0.74604440     0.16800
C819        C  0.24054927  0.01211529  0.75740450     0.03100
C820        C  0.22814305  0.01217781  0.76939023    -0.12100
C821        C  0.21692367  0.99907690  0.77072621    -0.03100
C822        C  0.21733782  0.98618677  0.75899638     0.02400
C823        C  0.25451779  0.99792705  0.73333530     0.09200
N824        N  0.25260759  0.02510694  0.75754587     0.65500
H825        H  0.22795650  0.02202266  0.77842132     0.18500
N826        N  0.20545449  0.97304232  0.75918604     0.76000
H827        H  0.22964396  0.97655744  0.73763439     0.10000
C828        C  0.26427750  0.98358386  0.73135567     0.03700
C829        C  0.27659996  0.98332731  0.71929470    -0.05000
C830        C  0.27986539  0.99722072  0.70944094    -0.23400
C831        C  0.26975225  0.01136589  0.71112878     0.12900
C832        C  0.25715861  0.01149435  0.72290229    -0.12600
N833        N  0.26240059  0.96946504  0.74192197     0.64600
H834        H  0.28428160  0.97243451  0.71829959     0.12400
N835        N  0.27193446  0.02564177  0.70094131     0.61200
H836        H  0.24938389  0.02232144  0.72395048     0.08600
O837        O  0.20980864  0.95848906  0.75570745    -0.40200
O838        O  0.19032856  0.97618986  0.76109347    -0.39400
O839        O  0.24826574  0.03976030  0.76059995    -0.39400
O840        O  0.26777662  0.02175039  0.75653747    -0.37100
O841        O  0.26997996  0.02458927  0.68553120    -0.38000
O842        O  0.27412432  0.03961660  0.70745998    -0.34200
O843        O  0.26344177  0.95508526  0.73601595    -0.35600
O844        O  0.26148538  0.97126713  0.75735564    -0.39900
C845        C  0.41356165  0.17148335  0.70199572    -0.13600
C846        C  0.41608974  0.17331825  0.68499909     0.16800
C847        C  0.40269022  0.17091494  0.67404925     0.03100
C848        C  0.38697632  0.16741341  0.68053999    -0.12100
C849        C  0.38427526  0.16616391  0.69764692    -0.03100
C850        C  0.39786802  0.16825769  0.70846108     0.02400
C851        C  0.43225443  0.18001433  0.67950171     0.09200
N852        N  0.40475956  0.17215763  0.65645189     0.65500
H853        H  0.37676026  0.16556529  0.67211663     0.18500
N854        N  0.39586100  0.16838253  0.72602863     0.76000
H855        H  0.42371535  0.17370380  0.71042346     0.10000
C856        C  0.43360167  0.19616443  0.67303633     0.03700
C857        C  0.44927479  0.20282749  0.67012180    -0.05000
C858        C  0.46375357  0.19401390  0.67387108    -0.23400
C859        C  0.46238612  0.17752127  0.67943472     0.12900
C860        C  0.44666159  0.17070065  0.68210542    -0.12600
N861        N  0.41932301  0.20632717  0.67021822     0.64600
H862        H  0.45016125  0.21543987  0.66575168     0.12400
N863        N  0.47666607  0.16793628  0.68360661     0.61200
H864        H  0.44568303  0.15831751  0.68706304     0.08600
O865        O  0.38626237  0.17872966  0.73260900    -0.40200
O866        O  0.40579745  0.16042582  0.73503402    -0.39400
O867        O  0.41823359  0.16815640  0.64978476    -0.39400
O868        O  0.39273276  0.17613493  0.64735718    -0.37100
O869        O  0.48655239  0.17302082  0.69451794    -0.38000
O870        O  0.47795958  0.15330906  0.67840910    -0.34200
O871        O  0.40828007  0.20756578  0.68109184    -0.35600
O872        O  0.41871335  0.21565668  0.65775568    -0.39900
C873        C  0.45226369  0.34351612  0.79365075    -0.13600
C874        C  0.44224401  0.33074726  0.79959596     0.16800
C875        C  0.44973240  0.31672974  0.80693358     0.03100
C876        C  0.46705982  0.31535995  0.80694265    -0.12100
C877        C  0.47693865  0.32746936  0.79951490    -0.03100
C878        C  0.46945943  0.34201175  0.79363411     0.02400
C879        C  0.42432125  0.33145711  0.79580407     0.09200
N880        N  0.44007950  0.30317525  0.81303178     0.65500
H881        H  0.47270771  0.30393951  0.81105396     0.18500
N882        N  0.47918483  0.35478686  0.78638507     0.76000
H883        H  0.44664409  0.35435559  0.78815978     0.10000
C884        C  0.41212909  0.33303602  0.80806776     0.03700
C885        C  0.39535982  0.33314653  0.80350447    -0.05000
C886        C  0.39049613  0.33182912  0.78685532    -0.23400
C887        C  0.40283564  0.32951471  0.77471418     0.12900
C888        C  0.41950028  0.32970524  0.77930554    -0.12600
N889        N  0.41659080  0.33495571  0.82506555     0.64600
H890        H  0.38612694  0.33486061  0.81298300     0.12400
N891        N  0.39873014  0.32614638  0.75781616     0.61200
H892        H  0.42884459  0.32788910  0.76994212     0.08600
O893        O  0.48763500  0.36414773  0.79551129    -0.40200
O894        O  0.47757403  0.35816622  0.77127807    -0.39400
O895        O  0.42805529  0.29769932  0.80478014    -0.39400
O896        O  0.44477937  0.29535869  0.82567231    -0.37100
O897        O  0.40691721  0.33276268  0.74636721    -0.38000
O898        O  0.38887564  0.31458859  0.75437144    -0.34200
O899        O  0.42654634  0.34613803  0.82933683    -0.35600
O900        O  0.40962964  0.32633648  0.83598254    -0.39900
C901        C  0.49009915  0.29508136  0.72854619    -0.13600
C902        C  0.50063411  0.28156373  0.72601270     0.16800
C903        C  0.51441973  0.27930086  0.73644484     0.03100
C904        C  0.51695411  0.29011398  0.74969633    -0.12100
C905        C  0.50569484  0.30290779  0.75308070    -0.03100
C906        C  0.49256415  0.30584751  0.74191151     0.02400
C907        C  0.49709823  0.26985678  0.71244142     0.09200
N908        N  0.52547117  0.26555157  0.73445945     0.65500
H909        H  0.52681123  0.28773815  0.75781026     0.18500
N910        N  0.48179731  0.31980246  0.74371854     0.76000
H911        H  0.48014346  0.29713836  0.72032319     0.10000
C912        C  0.48243461  0.26046582  0.71194257     0.03700
C913        C  0.48085353  0.24786232  0.70019763    -0.05000
C914        C  0.49373252  0.24416436  0.68920351    -0.23400
C915        C  0.50759289  0.25479092  0.68860042     0.12900
C916        C  0.50912558  0.26742802  0.70030305    -0.12600
N917        N  0.46953675  0.26269825  0.72387039     0.64600
H918        H  0.47010652  0.24007235  0.70067776     0.12400
N919        N  0.52029121  0.25287584  0.67641424     0.61200
H920        H  0.51993213  0.27512446  0.70025425     0.08600
O921        O  0.46659630  0.31843515  0.74063831    -0.40200
O922        O  0.48779346  0.33396092  0.74618565    -0.39400
O923        O  0.54074950  0.26743993  0.73676533    -0.39400
O924        O  0.51986594  0.25117261  0.73233166    -0.37100
O925        O  0.51649668  0.25039731  0.66151066    -0.38000
O926        O  0.53513185  0.25583921  0.68008254    -0.34200
O927        O  0.45463825  0.26140664  0.71951574    -0.35600
O928        O  0.47293739  0.26391568  0.73902034    -0.39900
C929        C  0.58856845  0.18773591  0.66458200    -0.13600
C930        C  0.57722369  0.20057329  0.66189724     0.16800
C931        C  0.58321253  0.21686954  0.65984209     0.03100
C932        C  0.60026983  0.21970636  0.65957671    -0.12100
C933        C  0.61170630  0.20688141  0.66205985    -0.03100
C934        C  0.60563755  0.19072513  0.66473938     0.02400
C935        C  0.55917610  0.19696044  0.66165153     0.09200
N936        N  0.57220998  0.23076261  0.65862700     0.65500
H937        H  0.60459386  0.23224933  0.65798810     0.18500
N938        N  0.61658098  0.17714370  0.66738688     0.76000
H939        H  0.58414072  0.17525155  0.66638599     0.10000
C940        C  0.54885552  0.20243965  0.64860578     0.03700
C941        C  0.53173153  0.20331818  0.65117731    -0.05000
C942        C  0.52469292  0.19834832  0.66613780    -0.23400
C943        C  0.53479697  0.19100430  0.67831778     0.12900
C944        C  0.55192177  0.19021906  0.67584558    -0.12600
N945        N  0.55562561  0.20800406  0.63316402     0.64600
H946        H  0.52390453  0.20884549  0.64183125     0.12400
N947        N  0.52812646  0.18543718  0.69373626     0.61200
H948        H  0.55972708  0.18577972  0.68577033     0.08600
O949        O  0.62296793  0.16987842  0.65521365    -0.40200
O950        O  0.61815904  0.17109350  0.68164577    -0.39400
O951        O  0.55990749  0.23185572  0.66806562    -0.39400
O952        O  0.57587580  0.24292067  0.64960970    -0.37100
O953        O  0.53301787  0.17197639  0.69989709    -0.38000
O954        O  0.51890065  0.19472955  0.70214606    -0.34200
O955        O  0.56876134  0.20175416  0.62763026    -0.35600
O956        O  0.54787803  0.21831862  0.62439263    -0.39900
C957        C  0.91805220  0.27888292  0.66926918    -0.13600
C958        C  0.92101196  0.29587784  0.67051705     0.16800
C959        C  0.90778913  0.30707205  0.66855011     0.03100
C960        C  0.89174553  0.30089863  0.66642377    -0.12100
C961        C  0.88853563  0.28382604  0.66612775    -0.03100
C962        C  0.90199660  0.27270307  0.66736522     0.02400
C963        C  0.93718810  0.30134037  0.67709190     0.09200
N964        N  0.91040558  0.32464189  0.66910756     0.65500
H965        H  0.88165386  0.30956028  0.66504115     0.18500
N966        N  0.89958931  0.25517946  0.66803978     0.76000
H967        H  0.92815271  0.27030417  0.67113884     0.10000
C968        C  0.93856525  0.30726112  0.69341337     0.03700
C969        C  0.95412354  0.31140576  0.69963975    -0.05000
C970        C  0.96852987  0.30924671  0.69026866    -0.23400
C971        C  0.96701705  0.30428732  0.67361572     0.12900
C972        C  0.95137549  0.30017760  0.66726988    -0.12600
N973        N  0.92452010  0.30811154  0.70419193     0.64600
H974        H  0.95510395  0.31516611  0.71243040     0.12400
N975        N  0.98119461  0.30258886  0.66326127     0.61200
H976        H  0.95028835  0.29587387  0.65466558     0.08600
O977        O  0.89077226  0.24902073  0.67927473    -0.40200
O978        O  0.90862292  0.24578432  0.65953503    -0.39400
O979        O  0.92356013  0.33084221  0.66359329    -0.39400
O980        O  0.89908231  0.33415058  0.67399560    -0.37100
O981        O  0.98345008  0.28940042  0.65529721    -0.38000
O982        O  0.98971081  0.31514358  0.65979186    -0.34200
O983        O  0.91442171  0.29628437  0.70489690    -0.35600
O984        O  0.92338463  0.31964568  0.71459059    -0.39900
C985        C  0.77197850  0.23330355  0.65703969    -0.13600
C986        C  0.75967661  0.24522653  0.65941984     0.16800
C987        C  0.76423188  0.26194301  0.66145411     0.03100
C988        C  0.78099831  0.26626981  0.66096779    -0.12100
C989        C  0.79345000  0.25435093  0.65869195    -0.03100
C990        C  0.78870038  0.23767611  0.65644058     0.02400
C991        C  0.74213526  0.23997116  0.65927586     0.09200
N992        N  0.75210625  0.27459757  0.66435235     0.65500
H993        H  0.78431795  0.27908621  0.66277962     0.18500
N994        N  0.80060187  0.22498581  0.65348269     0.76000
H995        H  0.76852263  0.22050159  0.65529531     0.10000
C996        C  0.73106844  0.24507435  0.64676345     0.03700
C997        C  0.71432965  0.24079117  0.64798886    -0.05000
C998        C  0.70837926  0.23136708  0.66125545    -0.23400
C999        C  0.71945651  0.22649882  0.67388249     0.12900
C1000       C  0.73623540  0.23059395  0.67254742    -0.12600
N1001       N  0.73660430  0.25439498  0.63271467     0.64600
H1002       H  0.70594042  0.24446907  0.63823380     0.12400
N1003       N  0.71378237  0.21838876  0.68857998     0.61200
H1004       H  0.74466043  0.22711371  0.68234629     0.08600
O1005       O  0.80705702  0.22367548  0.63939715    -0.40200
O1006       O  0.80243716  0.21349244  0.66383716    -0.39400
O1007       O  0.73991214  0.27186211  0.67360049    -0.39400
O1008       O  0.75439325  0.28904463  0.65898218    -0.37100
O1009       O  0.72277170  0.20777136  0.69562824    -0.38000
O1010       O  0.70112275  0.22364496  0.69594419    -0.34200
O1011       O  0.75038741  0.25134592  0.62618029    -0.35600
O1012       O  0.72710551  0.26470825  0.62588182    -0.39900
C1013       C  0.56277937  0.29852239  0.80791670    -0.13600
C1014       C  0.56874216  0.31133059  0.81785537     0.16800
C1015       C  0.55837449  0.32490716  0.82129519     0.03100
C1016       C  0.54239695  0.32554398  0.81443456    -0.12100
C1017       C  0.53666498  0.31295844  0.80396021    -0.03100
C1018       C  0.54688134  0.29901286  0.80112408     0.02400
C1019       C  0.58561226  0.30952256  0.82491922     0.09200
N1020       N  0.56381142  0.33802033  0.83179205     0.65500
H1021       H  0.53473095  0.33626188  0.81670837     0.18500
N1022       N  0.54118495  0.28504064  0.79177157     0.76000
H1023       H  0.57054409  0.28786543  0.80565243     0.10000
C1024       C  0.58933735  0.29645030  0.83587260     0.03700
C1025       C  0.60589241  0.29247529  0.83917338    -0.05000
C1026       C  0.61896373  0.30127996  0.83194317    -0.23400
C1027       C  0.61512251  0.31489293  0.82165621     0.12900
C1028       C  0.59857161  0.31882236  0.81824903    -0.12600
N1029       N  0.57646229  0.28681061  0.84333260     0.64600
H1030       H  0.60855449  0.28224437  0.84736311     0.12400
N1031       N  0.62777208  0.32409500  0.81354141     0.61200
H1032       H  0.59586430  0.32851495  0.80943739     0.08600
O1033       O  0.55110363  0.27701651  0.78285547    -0.40200
O1034       O  0.52684008  0.27943967  0.79399749    -0.39400
O1035       O  0.57538174  0.34735296  0.82723666    -0.39400
O1036       O  0.55556636  0.34173782  0.84443395    -0.37100
O1037       O  0.63574585  0.31759330  0.80187614    -0.38000
O1038       O  0.62914379  0.33937914  0.81620072    -0.34200
O1039       O  0.57870742  0.27168307  0.84636442    -0.35600
O1040       O  0.56324845  0.29360124  0.84798179    -0.39900
C1041       C  0.65372259  0.24873863  0.76928008    -0.13600
C1042       C  0.66166805  0.25783274  0.75692341     0.16800
C1043       C  0.66951430  0.27283287  0.76112693     0.03100
C1044       C  0.66952852  0.27809844  0.77765492    -0.12100
C1045       C  0.66209150  0.26866257  0.79018704    -0.03100
C1046       C  0.65377966  0.25394786  0.78572742     0.02400
C1047       C  0.66131162  0.25134012  0.73976835     0.09200
N1048       N  0.67799187  0.28254814  0.74897906     0.65500
H1049       H  0.67593405  0.28939465  0.78078112     0.18500
N1050       N  0.64502059  0.24425443  0.79759037     0.76000
H1051       H  0.64726129  0.23748533  0.76606793     0.10000
C1052       C  0.66699080  0.23526058  0.73616758     0.03700
C1053       C  0.66511914  0.22898367  0.72018760    -0.05000
C1054       C  0.65804783  0.23841243  0.70740355    -0.23400
C1055       C  0.65233912  0.25455752  0.71105983     0.12900
C1056       C  0.65409110  0.26080291  0.72715435    -0.12600
N1057       N  0.67507358  0.22529384  0.74845704     0.64600
H1058       H  0.66985612  0.21674764  0.71764776     0.12400
N1059       N  0.64428467  0.26459629  0.69887971     0.61200
H1060       H  0.64934393  0.27298148  0.72997546     0.08600
O1061       O  0.64831605  0.22910701  0.79920717    -0.40200
O1062       O  0.63233062  0.25010074  0.80443467    -0.39400
O1063       O  0.67767396  0.29810890  0.74978872    -0.39400
O1064       O  0.68711475  0.27568913  0.73840738    -0.37100
O1065       O  0.63176396  0.25916132  0.69137468    -0.38000
O1066       O  0.64783609  0.27971976  0.69770172    -0.34200
O1067       O  0.67290973  0.20986450  0.74869878    -0.35600
O1068       O  0.68557230  0.23160806  0.75808318    -0.39900
C1069       C  0.90927231  0.17587953  0.83159715    -0.13600
C1070       C  0.92124002  0.18785099  0.83517654     0.16800
C1071       C  0.91621556  0.20328961  0.84150585     0.03100
C1072       C  0.89939019  0.20643925  0.84388117    -0.12100
C1073       C  0.88717706  0.19478788  0.83974020    -0.03100
C1074       C  0.89234951  0.17903373  0.83404660     0.02400
C1075       C  0.93880026  0.18476459  0.83101926     0.09200
N1076       N  0.92794040  0.21609678  0.84521688     0.65500
H1077       H  0.89585386  0.21852111  0.84835945     0.18500
N1078       N  0.88076247  0.16608494  0.83077113     0.76000
H1079       H  0.91313621  0.16398888  0.82685417     0.10000
C1080       C  0.95088165  0.18105883  0.84310020     0.03700
C1081       C  0.96771610  0.18206318  0.83896053    -0.05000
C1082       C  0.97260004  0.18702942  0.82313486    -0.23400
C1083       C  0.96050078  0.18895268  0.81068088     0.12900
C1084       C  0.94375948  0.18777131  0.81477042    -0.12600
N1085       N  0.94637048  0.17703205  0.85971461     0.64600
H1086       H  0.97692277  0.18061680  0.84856131     0.12400
N1087       N  0.96507034  0.19313402  0.79407725     0.61200
H1088       H  0.93450335  0.19022790  0.80542025     0.08600
O1089       O  0.87155308  0.16094171  0.84219528    -0.40200
O1090       O  0.88191677  0.15776027  0.81766868    -0.39400
O1091       O  0.93951621  0.21933352  0.83535958    -0.39400
O1092       O  0.92570215  0.22539943  0.85749638    -0.37100
O1093       O  0.97756502  0.18657109  0.78751802    -0.38000
O1094       O  0.95623760  0.20284554  0.78565435    -0.34200
O1095       O  0.95327532  0.16506952  0.86694799    -0.35600
O1096       O  0.93706433  0.18648578  0.86784193    -0.39900
C1097       C  0.76376827  0.22805638  0.83332646    -0.13600
C1098       C  0.76078590  0.24291592  0.84174414     0.16800
C1099       C  0.77390276  0.25039929  0.85052819     0.03100
C1100       C  0.78970938  0.24322782  0.84999738    -0.12100
C1101       C  0.79284791  0.22851369  0.84129141    -0.03100
C1102       C  0.77957172  0.22088385  0.83285450     0.02400
C1103       C  0.74398005  0.25050275  0.84080276     0.09200
N1104       N  0.77139312  0.26505266  0.86025022     0.65500
H1105       H  0.79960498  0.24906615  0.85682070     0.18500
N1106       N  0.78196139  0.20631172  0.82313283     0.76000
H1107       H  0.75381408  0.22228290  0.82651650     0.10000
C1108       C  0.74120979  0.26661435  0.83452398     0.03700
C1109       C  0.72517045  0.27336665  0.83491994    -0.05000
C1110       C  0.71164461  0.26438831  0.84105625    -0.23400
C1111       C  0.71457937  0.24822592  0.84718022     0.12900
C1112       C  0.73053532  0.24150290  0.84683766    -0.12600
N1113       N  0.75436683  0.27613337  0.82739034     0.64600
H1114       H  0.72319449  0.28560486  0.82990767     0.12400
N1115       N  0.70163089  0.23849285  0.85414427     0.61200
H1116       H  0.73253627  0.22922792  0.85178643     0.08600
O1117       O  0.79170325  0.20661809  0.81101945    -0.40200
O1118       O  0.77238911  0.19416451  0.82486906    -0.39400
O1119       O  0.75826544  0.26699671  0.86835635    -0.39400
O1120       O  0.78295396  0.27531774  0.86209341    -0.37100
O1121       O  0.69831887  0.22452778  0.84810021    -0.38000
O1122       O  0.69545112  0.24257298  0.86782060    -0.34200
O1123       O  0.76536001  0.26921029  0.81882758    -0.35600
O1124       O  0.75418113  0.29169119  0.82831226    -0.39900
C1125       C  0.85291105  0.24348985  0.77158477    -0.13600
C1126       C  0.84119149  0.23714844  0.76050325     0.16800
C1127       C  0.83022771  0.22472271  0.76595514     0.03100
C1128       C  0.83131255  0.21900219  0.78228483    -0.12100
C1129       C  0.84279606  0.22558061  0.79350781    -0.03100
C1130       C  0.85392511  0.23782952  0.78795343     0.02400
C1131       C  0.84124728  0.24302877  0.74307687     0.09200
N1132       N  0.81759028  0.21818593  0.75532365     0.65500
H1133       H  0.82258924  0.20979745  0.78645601     0.18500
N1134       N  0.86674560  0.24414187  0.79844722     0.76000
H1135       H  0.86163975  0.25264043  0.76730592     0.10000
C1136       C  0.83917210  0.25987815  0.73895154     0.03700
C1137       C  0.83961308  0.26473020  0.72229737    -0.05000
C1138       C  0.84180004  0.25317747  0.70951987    -0.23400
C1139       C  0.84400841  0.23636270  0.71380657     0.12900
C1140       C  0.84389112  0.23154391  0.73040790    -0.12600
N1141       N  0.83622833  0.27214939  0.75140602     0.64600
H1142       H  0.83790794  0.27765463  0.71933274     0.12400
N1143       N  0.84607241  0.22390052  0.70150574     0.61200
H1144       H  0.84569277  0.21863712  0.73344018     0.08600
O1145       O  0.87079868  0.25916035  0.79760316    -0.40200
O1146       O  0.87561093  0.23434495  0.80673785    -0.39400
O1147       O  0.81310597  0.20333398  0.75674428    -0.39400
O1148       O  0.80966678  0.22759603  0.74573612    -0.37100
O1149       O  0.85988285  0.21692740  0.69979426    -0.38000
O1150       O  0.83364343  0.21833118  0.69395636    -0.34200
O1151       O  0.84228678  0.28642082  0.74993000    -0.35600
O1152       O  0.82633331  0.26931206  0.76305793    -0.39900
C1153       C  0.29094036  0.74560096  0.51560685    -0.13600
C1154       C  0.29493246  0.73385930  0.50354544     0.16800
C1155       C  0.30854757  0.73667292  0.49303694     0.03100
C1156       C  0.31696925  0.75177786  0.49408638    -0.12100
C1157       C  0.31242561  0.76383743  0.50565529    -0.03100
C1158       C  0.29959453  0.76042235  0.51684268     0.02400
C1159       C  0.28304876  0.72029675  0.50055117     0.09200
N1160       N  0.31376717  0.72449648  0.48120519     0.65500
H1161       H  0.32707688  0.75424839  0.48568098     0.18500
N1162       N  0.29406644  0.77253354  0.52839065     0.76000
H1163       H  0.28031976  0.74368800  0.52352257     0.10000
C1164       C  0.27762628  0.70986510  0.51338355     0.03700
C1165       C  0.26390427  0.69969715  0.51070307    -0.05000
C1166       C  0.25547691  0.69953097  0.49548313    -0.23400
C1167       C  0.26183302  0.70908920  0.48230674     0.12900
C1168       C  0.27529683  0.71950564  0.48510103    -0.12600
N1169       N  0.28561494  0.70977945  0.52925455     0.64600
H1170       H  0.25953715  0.69217357  0.52086631     0.12400
N1171       N  0.25463053  0.70875269  0.46615064     0.61200
H1172       H  0.27943940  0.72750709  0.47518553     0.08600
O1173       O  0.29878592  0.77181405  0.54321099    -0.40200
O1174       O  0.28297197  0.78267504  0.52427580    -0.39400
O1175       O  0.32111112  0.72884886  0.46820130    -0.39400
O1176       O  0.31236381  0.70929448  0.48434043    -0.37100
O1177       O  0.25081181  0.72208944  0.45903387    -0.38000
O1178       O  0.25444794  0.69545290  0.45804784    -0.34200
O1179       O  0.27740302  0.70696991  0.54216130    -0.35600
O1180       O  0.30105718  0.71141238  0.53035946    -0.39900
C1181       C  0.21369960  0.54591217  0.65103794    -0.13600
C1182       C  0.20671032  0.55628295  0.66300681     0.16800
C1183       C  0.19757922  0.54920725  0.67605912     0.03100
C1184       C  0.19698570  0.53192667  0.67760423    -0.12100
C1185       C  0.20571362  0.52171310  0.66672044    -0.03100
C1186       C  0.21342763  0.52869684  0.65279584     0.02400
C1187       C  0.21045146  0.57422662  0.66224088     0.09200
N1188       N  0.19018084  0.55922235  0.68864995     0.65500
H1189       H  0.19135473  0.52656541  0.68845891     0.18500
N1190       N  0.22185202  0.51848695  0.64096730     0.76000
H1191       H  0.22015108  0.55134060  0.64069216     0.10000
C1192       C  0.22694139  0.57964775  0.66222154     0.03700
C1193       C  0.23049233  0.59642495  0.66093531    -0.05000
C1194       C  0.21790311  0.60831304  0.65994376    -0.23400
C1195       C  0.20124750  0.60292194  0.65994772     0.12900
C1196       C  0.19773787  0.58593849  0.66113904    -0.12600
N1197       N  0.24024922  0.56826929  0.66444478     0.64600
H1198       H  0.24331046  0.60015592  0.66125802     0.12400
N1199       N  0.18779828  0.61429918  0.65819960     0.61200
H1200       H  0.18504022  0.58181876  0.66087821     0.08600
O1201       O  0.23387022  0.52412171  0.63286436    -0.40200
O1202       O  0.21673548  0.50409816  0.63788083    -0.39400
O1203       O  0.17637413  0.55523225  0.69458278    -0.39400
O1204       O  0.19824749  0.57075369  0.69532380    -0.37100
O1205       O  0.18719314  0.62381023  0.64588008    -0.38000
O1206       O  0.17523716  0.61285820  0.66724510    -0.34200
O1207       O  0.25121114  0.56689365  0.65351241    -0.35600
O1208       O  0.24232878  0.56148319  0.67829539    -0.39900
C1209       C  0.20074154  0.65814506  0.58643047    -0.13600
C1210       C  0.21370193  0.65857695  0.57504011     0.16800
C1211       C  0.23016088  0.65773558  0.58082858     0.03100
C1212       C  0.23318165  0.65659968  0.59783992    -0.12100
C1213       C  0.22026515  0.65673748  0.60938781    -0.03100
C1214       C  0.20382716  0.65721225  0.60345379     0.02400
C1215       C  0.20998854  0.66093730  0.55724574     0.09200
N1216       N  0.24396355  0.65863826  0.56974410     0.65500
H1217       H  0.24585345  0.65628068  0.60207900     0.18500
N1218       N  0.19008605  0.65646064  0.61442834     0.76000
H1219       H  0.18811428  0.65872427  0.58206300     0.10000
C1220       C  0.21500364  0.64931552  0.54521921     0.03700
C1221       C  0.21595272  0.65427508  0.52860791    -0.05000
C1222       C  0.21171848  0.67037204  0.52385765    -0.23400
C1223       C  0.20531611  0.68139581  0.53567709     0.12900
C1224       C  0.20421562  0.67646593  0.55219216    -0.12600
N1225       N  0.22000563  0.63289133  0.54982686     0.64600
H1226       H  0.22090857  0.64587415  0.51948098     0.12400
N1227       N  0.20157528  0.69817536  0.53145745     0.61200
H1228       H  0.20046009  0.68542784  0.56136990     0.08600
O1229       O  0.18100344  0.64382493  0.61442003    -0.40200
O1230       O  0.18506113  0.66948482  0.62131994    -0.39400
O1231       O  0.24413828  0.66911213  0.55821169    -0.39400
O1232       O  0.25685584  0.65038245  0.57268167    -0.37100
O1233       O  0.18772406  0.70419590  0.53519152    -0.38000
O1234       O  0.21289139  0.70766614  0.52657294    -0.34200
O1235       O  0.21324007  0.62566158  0.56182709    -0.35600
O1236       O  0.23033166  0.62507205  0.54119926    -0.39900
C1237       C  0.30141537  0.58200440  0.84067837    -0.13600
C1238       C  0.31223805  0.57758767  0.82795138     0.16800
C1239       C  0.31985928  0.59021636  0.81856539     0.03100
C1240       C  0.31613731  0.60684575  0.82199538    -0.12100
C1241       C  0.30459437  0.61117700  0.83414107    -0.03100
C1242       C  0.29761539  0.59856625  0.84398558     0.02400
C1243       C  0.31421037  0.55972481  0.82399239     0.09200
N1244       N  0.33061656  0.58647357  0.80498815     0.65500
H1245       H  0.32146701  0.61641646  0.81435209     0.18500
N1246       N  0.28683510  0.60233545  0.85750399     0.76000
H1247       H  0.29580607  0.57240535  0.84808935     0.10000
C1248       C  0.32969677  0.55159353  0.82366335     0.03700
C1249       C  0.33063840  0.53542562  0.81728093    -0.05000
C1250       C  0.31650099  0.52717769  0.81164380    -0.23400
C1251       C  0.30087673  0.53475858  0.81345844     0.12900
C1252       C  0.30000665  0.55097085  0.81944451    -0.12600
N1253       N  0.34449738  0.55964624  0.82928343     0.64600
H1254       H  0.34255258  0.52951279  0.81598803     0.12400
N1255       N  0.28585930  0.52630276  0.80904891     0.61200
H1256       H  0.28812661  0.55706151  0.82013590     0.08600
O1257       O  0.29077371  0.61331868  0.86782564    -0.40200
O1258       O  0.27440362  0.59340139  0.86027989    -0.39400
O1259       O  0.32709311  0.57503555  0.79502200    -0.39400
O1260       O  0.34260754  0.59585508  0.80177771    -0.37100
O1261       O  0.28488682  0.51079218  0.81023006    -0.38000
O1262       O  0.27296615  0.53440724  0.80569785    -0.34200
O1263       O  0.34399726  0.56986645  0.84101930    -0.35600
O1264       O  0.35833748  0.55558054  0.82344709    -0.39900
C1265       C  0.27780558  0.66223308  0.76025892    -0.13600
C1266       C  0.26176159  0.65690696  0.75668717     0.16800
C1267       C  0.25132236  0.65213736  0.76975836     0.03100
C1268       C  0.25719657  0.65281806  0.78608603    -0.12100
C1269       C  0.27338644  0.65796013  0.78978095    -0.03100
C1270       C  0.28365435  0.66289493  0.77654975     0.02400
C1271       C  0.25606892  0.65672502  0.73923912     0.09200
N1272       N  0.23487545  0.64630976  0.76666813     0.65500
H1273       H  0.24907064  0.64896672  0.79593595     0.18500
N1274       N  0.30000009  0.66882061  0.77936568     0.76000
H1275       H  0.28581894  0.66606990  0.75029687     0.10000
C1276       C  0.24469166  0.66846286  0.73314894     0.03700
C1277       C  0.23904011  0.66725749  0.71677568    -0.05000
C1278       C  0.24475169  0.65474881  0.70621075    -0.23400
C1279       C  0.25577679  0.64270290  0.71251736     0.12900
C1280       C  0.26149104  0.64401839  0.72885188    -0.12600
N1281       N  0.23919403  0.68192404  0.74325124     0.64600
H1282       H  0.23069667  0.67659896  0.71205202     0.12400
N1283       N  0.26064834  0.62867053  0.70282172     0.61200
H1284       H  0.26981549  0.63473076  0.73370976     0.08600
O1285       O  0.30261563  0.68415137  0.78017168    -0.40200
O1286       O  0.31202642  0.65894836  0.77873645    -0.39400
O1287       O  0.23215023  0.63604946  0.75527335    -0.39400
O1288       O  0.22330941  0.65014130  0.77633097    -0.37100
O1289       O  0.27487108  0.62254581  0.70453149    -0.38000
O1290       O  0.25009372  0.62099817  0.69430594    -0.34200
O1291       O  0.24948748  0.69041392  0.75128832    -0.35600
O1292       O  0.22428152  0.68638860  0.74288334    -0.39900
C1293       C  0.30186411  0.91053529  0.66300597    -0.13600
C1294       C  0.31787707  0.91420857  0.66835424     0.16800
C1295       C  0.32873032  0.90114427  0.67243789     0.03100
C1296       C  0.32307014  0.88474084  0.67136149    -0.12100
C1297       C  0.30688481  0.88102718  0.66620834    -0.03100
C1298       C  0.29625882  0.89427110  0.66192821     0.02400
C1299       C  0.32193430  0.93181551  0.67149208     0.09200
N1300       N  0.34546647  0.90427632  0.67749365     0.65500
H1301       H  0.33146491  0.87480537  0.67445165     0.18500
N1302       N  0.27955443  0.89161196  0.65688804     0.76000
H1303       H  0.29335078  0.92048552  0.66023249     0.10000
C1304       C  0.32001402  0.94400712  0.65910766     0.03700
C1305       C  0.31994055  0.96077141  0.66358209    -0.05000
C1306       C  0.32165610  0.96553292  0.68009278    -0.23400
C1307       C  0.32479335  0.95343970  0.69222627     0.12900
C1308       C  0.32487081  0.93672191  0.68782345    -0.12600
N1309       N  0.31715872  0.93951884  0.64219105     0.64600
H1310       H  0.31730917  0.97006214  0.65432584     0.12400
N1311       N  0.32685631  0.95797514  0.70920929     0.61200
H1312       H  0.32626499  0.92745800  0.69736896     0.08600
O1313       O  0.26870781  0.88868737  0.66762245    -0.40200
O1314       O  0.27512673  0.89554846  0.64248461    -0.39400
O1315       O  0.35280953  0.89434396  0.68701658    -0.39400
O1316       O  0.35343911  0.91618076  0.67141035    -0.37100
O1317       O  0.31950666  0.95004794  0.72039466    -0.38000
O1318       O  0.33648951  0.96956787  0.71311722    -0.34200
O1319       O  0.30764917  0.94807741  0.63326939    -0.35600
O1320       O  0.32466608  0.92741894  0.63588347    -0.39900
C1321       C  0.32222352  0.81479647  0.59487762    -0.13600
C1322       C  0.31925057  0.82774403  0.58367895     0.16800
C1323       C  0.31104684  0.84211222  0.58940671     0.03100
C1324       C  0.30534955  0.84271400  0.60578789    -0.12100
C1325       C  0.30833692  0.82973920  0.61688479    -0.03100
C1326       C  0.31711684  0.81570682  0.61139318     0.02400
C1327       C  0.32308700  0.82508885  0.56579214     0.09200
N1328       N  0.30873787  0.85629021  0.57894343     0.65500
H1329       H  0.29900328  0.85365373  0.61009674     0.18500
N1330       N  0.32026953  0.80192941  0.62211633     0.76000
H1331       H  0.32801730  0.80355320  0.59058842     0.10000
C1332       C  0.33831894  0.81835385  0.56038460     0.03700
C1333       C  0.33999862  0.81331526  0.54384134    -0.05000
C1334       C  0.32720398  0.81555190  0.53239886    -0.23400
C1335       C  0.31250632  0.82328578  0.53749042     0.12900
C1336       C  0.31046847  0.82761083  0.55411587    -0.12600
N1337       N  0.35199766  0.81621298  0.57152194     0.64600
H1338       H  0.35116861  0.80711325  0.53995837     0.12400
N1339       N  0.29916403  0.82584748  0.52610324     0.61200
H1340       H  0.29870332  0.83252292  0.55804856     0.08600
O1341       O  0.30886986  0.79606421  0.63091177    -0.40200
O1342       O  0.33386903  0.79437275  0.62134684    -0.39400
O1343       O  0.29639285  0.86559423  0.58088269    -0.39400
O1344       O  0.31981171  0.86050726  0.56887499    -0.37100
O1345       O  0.28448399  0.82315561  0.53046891    -0.38000
O1346       O  0.30187624  0.83225618  0.51218356    -0.34200
O1347       O  0.36190540  0.80433086  0.56963075    -0.35600
O1348       O  0.35504029  0.82692129  0.58241489    -0.39900
C1349       C  0.27266925  0.75899986  0.67304957    -0.13600
C1350       C  0.26710072  0.75294330  0.65784350     0.16800
C1351       C  0.26630928  0.76362493  0.64407477     0.03100
C1352       C  0.27088537  0.78024588  0.64598216    -0.12100
C1353       C  0.27664913  0.78625014  0.66115933    -0.03100
C1354       C  0.27747239  0.77552641  0.67486951     0.02400
C1355       C  0.26083727  0.73580705  0.65708162     0.09200
N1356       N  0.26103882  0.75781623  0.62815583     0.65500
H1357       H  0.27045162  0.78844498  0.63542556     0.18500
N1358       N  0.28215841  0.78145323  0.69087942     0.76000
H1359       H  0.27284515  0.75088100  0.68367423     0.10000
C1360       C  0.27134614  0.72232366  0.65386416     0.03700
C1361       C  0.26469533  0.70635994  0.65304047    -0.05000
C1362       C  0.24777626  0.70340986  0.65567239    -0.23400
C1363       C  0.23729478  0.71710831  0.65857475     0.12900
C1364       C  0.24394529  0.73306468  0.65934539    -0.12600
N1365       N  0.28871156  0.72460888  0.65128883     0.64600
H1366       H  0.27299565  0.69613176  0.65077862     0.12400
N1367       N  0.21988590  0.71515746  0.66060737     0.61200
H1368       H  0.23582706  0.74345753  0.66159190     0.08600
O1369       O  0.27606917  0.79471440  0.69630134    -0.40200
O1370       O  0.29040930  0.77237145  0.70050346    -0.39400
O1371       O  0.25325641  0.76730837  0.61853626    -0.39400
O1372       O  0.26568747  0.74389997  0.62292069    -0.37100
O1373       O  0.21306843  0.71992169  0.67374527    -0.38000
O1374       O  0.21106377  0.71116328  0.64840396    -0.34200
O1375       O  0.29706917  0.73334201  0.66110672    -0.35600
O1376       O  0.29604287  0.71656973  0.64016683    -0.39900
C1377       C  0.18810002  0.90434641  0.82947501    -0.13600
C1378       C  0.20041838  0.91651132  0.82884721     0.16800
C1379       C  0.21693186  0.91189858  0.83216431     0.03100
C1380       C  0.22069317  0.89532771  0.83566281    -0.12100
C1381       C  0.20852281  0.88295160  0.83553075    -0.03100
C1382       C  0.19190032  0.88770209  0.83277518     0.02400
C1383       C  0.19591105  0.93384765  0.82435139     0.09200
N1384       N  0.23017914  0.92363314  0.83119922     0.65500
H1385       H  0.23348218  0.89199280  0.83762813     0.18500
N1386       N  0.17868301  0.87597182  0.83355338     0.76000
H1387       H  0.17537402  0.90785416  0.82736991     0.10000
C1388       C  0.18791879  0.93758044  0.80925159     0.03700
C1389       C  0.18556316  0.95413717  0.80467193    -0.05000
C1390       C  0.19120605  0.96714161  0.81460863    -0.23400
C1391       C  0.19823560  0.96346881  0.83007222     0.12900
C1392       C  0.20040477  0.94692880  0.83487735    -0.12600
N1393       N  0.18327639  0.92485571  0.79782452     0.64600
H1394       H  0.18047071  0.95687574  0.79260648     0.12400
N1395       N  0.20475662  0.97631748  0.84022766     0.61200
H1396       H  0.20636130  0.94427387  0.84655466     0.08600
O1397       O  0.16723635  0.87643891  0.82298253    -0.40200
O1398       O  0.17704562  0.86695883  0.84614675    -0.39400
O1399       O  0.24203190  0.92285132  0.84129367    -0.39400
O1400       O  0.23111832  0.93344098  0.81913448    -0.37100
O1401       O  0.19528415  0.98456055  0.84939986    -0.38000
O1402       O  0.22010515  0.97879923  0.84075674    -0.34200
O1403       O  0.16982749  0.92594721  0.79002623    -0.35600
O1404       O  0.19345361  0.91374160  0.79388347    -0.39900
C1405       C  0.23842040  0.83677982  0.76221754    -0.13600
C1406       C  0.25557021  0.83705047  0.76004304     0.16800
C1407       C  0.26591495  0.83822623  0.77408120     0.03100
C1408       C  0.25881056  0.83845291  0.78988250    -0.12100
C1409       C  0.24161093  0.83804347  0.79212726    -0.03100
C1410       C  0.23131853  0.83750022  0.77797454     0.02400
C1411       C  0.26225253  0.83612424  0.74295808     0.09200
N1412       N  0.28355550  0.83934677  0.77256847     0.65500
H1413       H  0.26686335  0.83902369  0.80054068     0.18500
N1414       N  0.21368762  0.83815274  0.77924056     0.76000
H1415       H  0.23044550  0.83617929  0.75149093     0.10000
C1416       C  0.27333106  0.82357023  0.73792367     0.03700
C1417       C  0.28012501  0.82420875  0.72198095    -0.05000
C1418       C  0.27544295  0.83645841  0.71061811    -0.23400
C1419       C  0.26434356  0.84891845  0.71567592     0.12900
C1420       C  0.25781910  0.84853136  0.73169124    -0.12600
N1421       N  0.27741897  0.80990688  0.74855756     0.64600
H1422       H  0.28863065  0.81464212  0.71817630     0.12400
N1423       N  0.26039950  0.86258725  0.70510549     0.61200
H1424       H  0.24962090  0.85834117  0.73560481     0.08600
O1425       O  0.20491847  0.82859536  0.77061646    -0.40200
O1426       O  0.20689192  0.84999310  0.78673419    -0.39400
O1427       O  0.28995331  0.84796755  0.76130621    -0.39400
O1428       O  0.29278760  0.83302148  0.78343112    -0.37100
O1429       O  0.27178135  0.87020867  0.69774940    -0.38000
O1430       O  0.24600941  0.86854465  0.70499932    -0.34200
O1431       O  0.26672955  0.80386555  0.75810032    -0.35600
O1432       O  0.29114125  0.80267135  0.74715015    -0.39900
C1433       C  0.26045213  0.76736314  0.84940796    -0.13600
C1434       C  0.25345644  0.75568934  0.83870450     0.16800
C1435       C  0.23970426  0.76032454  0.82894036     0.03100
C1436       C  0.23332060  0.77643392  0.83023299    -0.12100
C1437       C  0.24051886  0.78823990  0.84071993    -0.03100
C1438       C  0.25417781  0.78347731  0.85057024     0.02400
C1439       C  0.26001792  0.73846369  0.83883467     0.09200
N1440       N  0.23243304  0.74908236  0.81728144     0.65500
H1441       H  0.22304883  0.77996061  0.82242900     0.18500
N1442       N  0.26148605  0.79458100  0.86225564     0.76000
H1443       H  0.27065177  0.76376811  0.85728424     0.10000
C1444       C  0.27688379  0.73491496  0.83614262     0.03700
C1445       C  0.28248945  0.71850034  0.83718145    -0.05000
C1446       C  0.27168164  0.70535991  0.84065145    -0.23400
C1447       C  0.25485533  0.70909947  0.84365576     0.12900
C1448       C  0.24928671  0.72546712  0.84267656    -0.12600
N1449       N  0.28838078  0.74769714  0.83186559     0.64600
H1450       H  0.29537053  0.71598363  0.83475550     0.12400
N1451       N  0.24316646  0.69654330  0.84778639     0.61200
H1452       H  0.23643684  0.72809968  0.84519848     0.08600
O1453       O  0.27697705  0.79571129  0.86328668    -0.40200
O1454       O  0.25263971  0.80141953  0.87307374    -0.39400
O1455       O  0.21714964  0.74965575  0.81433452    -0.39400
O1456       O  0.24142675  0.73972928  0.80868198    -0.37100
O1457       O  0.24388564  0.68966600  0.86174110    -0.38000
O1458       O  0.23048586  0.69460851  0.83894542    -0.34200
O1459       O  0.30293905  0.74726482  0.83739900    -0.35600
O1460       O  0.28452242  0.75859171  0.82140219    -0.39900
C1461       C  0.49103949  0.77404759  0.25304617    -0.13600
C1462       C  0.50376648  0.76231028  0.25238399     0.16800
C1463       C  0.51680989  0.76311661  0.26397635     0.03100
C1464       C  0.51666683  0.77551467  0.27600688    -0.12100
C1465       C  0.50356521  0.78676951  0.27709164    -0.03100
C1466       C  0.49071771  0.78621455  0.26529703     0.02400
C1467       C  0.50350502  0.74978364  0.23905496     0.09200
N1468       N  0.52990452  0.75113754  0.26414218     0.65500
H1469       H  0.52643776  0.77581877  0.28513492     0.18500
N1470       N  0.47760422  0.79816667  0.26522347     0.76000
H1471       H  0.48137785  0.77385390  0.24380397     0.10000
C1472       C  0.48954806  0.73973821  0.23616070     0.03700
C1473       C  0.48984112  0.72835673  0.22317347    -0.05000
C1474       C  0.50389104  0.72637746  0.21327471    -0.23400
C1475       C  0.51764072  0.73679915  0.21585720     0.12900
C1476       C  0.51724241  0.74838101  0.22866251    -0.12600
N1477       N  0.47528453  0.74041406  0.24663326     0.64600
H1478       H  0.47930410  0.72034337  0.22141526     0.12400
N1479       N  0.53187211  0.73614756  0.20538307     0.61200
H1480       H  0.52768921  0.75651415  0.23042551     0.08600
O1481       O  0.46310795  0.79383214  0.26154423    -0.40200
O1482       O  0.48078586  0.81333243  0.26684842    -0.39400
O1483       O  0.54443093  0.75550228  0.26766339    -0.39400
O1484       O  0.52674972  0.73596907  0.26249700    -0.37100
O1485       O  0.53017561  0.73664995  0.18991146    -0.38000
O1486       O  0.54614327  0.73723823  0.21153796    -0.34200
O1487       O  0.46104064  0.73881134  0.24052767    -0.35600
O1488       O  0.47691547  0.74089793  0.26211254    -0.39900
C1489       C  0.45280959  0.69370927  0.15765059    -0.13600
C1490       C  0.44054768  0.69045097  0.16942490     0.16800
C1491       C  0.44521439  0.68464518  0.18521080     0.03100
C1492       C  0.46200665  0.68337369  0.18918375    -0.12100
C1493       C  0.47421720  0.68801106  0.17788360    -0.03100
C1494       C  0.46959347  0.69249502  0.16175080     0.02400
C1495       C  0.42308409  0.69442512  0.16556392     0.09200
N1496       N  0.43320473  0.68146951  0.19781561     0.65500
H1497       H  0.46552557  0.68034197  0.20172957     0.18500
N1498       N  0.48176527  0.69732037  0.14995268     0.76000
H1499       H  0.44930696  0.69795151  0.14546101     0.10000
C1500       C  0.41807385  0.71079701  0.16225248     0.03700
C1501       C  0.40128639  0.71432827  0.16007696    -0.05000
C1502       C  0.38922110  0.70193838  0.16133088    -0.23400
C1503       C  0.39440620  0.68533765  0.16353332     0.12900
C1504       C  0.41123001  0.68184978  0.16585826    -0.12600
N1505       N  0.42973198  0.72411889  0.16191379     0.64600
H1506       H  0.39762783  0.72706418  0.15825844     0.12400
N1507       N  0.38293292  0.67186090  0.16303844     0.61200
H1508       H  0.41513796  0.66921574  0.16789392     0.08600
O1509       O  0.48112118  0.71142019  0.14335581    -0.40200
O1510       O  0.49281799  0.68724824  0.14562239    -0.39400
O1511       O  0.43505797  0.66933580  0.20741806    -0.39400
O1512       O  0.42198978  0.69187059  0.20077445    -0.37100
O1513       O  0.37308909  0.67048562  0.15103031    -0.38000
O1514       O  0.38445448  0.65997370  0.17300346    -0.34200
O1515       O  0.42871305  0.73506676  0.15087420    -0.35600
O1516       O  0.43991621  0.72596085  0.17356627    -0.39900
C1517       C  0.26484926  0.72693548  0.17007488    -0.13600
C1518       C  0.25953190  0.73740213  0.15733415     0.16800
C1519       C  0.27121146  0.74373834  0.14607570     0.03100
C1520       C  0.28792847  0.73958069  0.14799767    -0.12100
C1521       C  0.29328509  0.72900725  0.16067822    -0.03100
C1522       C  0.28156179  0.72277327  0.17199871     0.02400
C1523       C  0.24197279  0.74268347  0.15695649     0.09200
N1524       N  0.26628911  0.75401173  0.13243441     0.65500
H1525       H  0.29676373  0.74419461  0.13913161     0.18500
N1526       N  0.28643021  0.71297096  0.18596417     0.76000
H1527       H  0.25596789  0.72248003  0.17898163     0.10000
C1528       C  0.22889912  0.73127499  0.15525518     0.03700
C1529       C  0.21252038  0.73695989  0.15603709    -0.05000
C1530       C  0.20880143  0.75379330  0.15832931    -0.23400
C1531       C  0.22202559  0.76506609  0.16004486     0.12900
C1532       C  0.23833001  0.75943280  0.15931510    -0.12600
N1533       N  0.23199353  0.71402499  0.15237386     0.64600
H1534       H  0.20261374  0.72813147  0.15456893     0.12400
N1535       N  0.21922111  0.78230411  0.16254584     0.61200
H1536       H  0.24828350  0.76821459  0.16085707     0.08600
O1537       O  0.27736601  0.70128082  0.19080207    -0.40200
O1538       O  0.29833515  0.71750613  0.19493728    -0.39400
O1539       O  0.27591689  0.76497910  0.12703298    -0.39400
O1540       O  0.25306774  0.75112470  0.12471053    -0.37100
O1541       O  0.21670944  0.78768383  0.17692496    -0.38000
O1542       O  0.22193761  0.79234686  0.15097165    -0.34200
O1543       O  0.22230101  0.70326529  0.15806702    -0.35600
O1544       O  0.24347244  0.70953909  0.14288451    -0.39900
C1545       C  0.17042484  0.71191201  0.41593896    -0.13600
C1546       C  0.18011313  0.69783011  0.41886056     0.16800
C1547       C  0.18345469  0.68699922  0.40560619     0.03100
C1548       C  0.17781610  0.69101750  0.38970842    -0.12100
C1549       C  0.16923011  0.70580518  0.38649933    -0.03100
C1550       C  0.16497038  0.71603066  0.40001470     0.02400
C1551       C  0.18749308  0.69534294  0.43553685     0.09200
N1552       N  0.19334725  0.67242143  0.40777334     0.65500
H1553       H  0.18110558  0.68292425  0.37961478     0.18500
N1554       N  0.15525736  0.73067553  0.39788893     0.76000
H1555       H  0.16738921  0.72000174  0.42612434     0.10000
C1556       C  0.19776433  0.70752174  0.44263005     0.03700
C1557       C  0.20539683  0.70444473  0.45781590    -0.05000
C1558       C  0.20351858  0.68930977  0.46605227    -0.23400
C1559       C  0.19285782  0.67728967  0.45927325     0.12900
C1560       C  0.18471377  0.68057100  0.44424999    -0.12600
N1561       N  0.20121458  0.72278292  0.43429119     0.64600
H1562       H  0.21345350  0.71379792  0.46293162     0.12400
N1563       N  0.19103761  0.66136698  0.46678437     0.61200
H1564       H  0.17679595  0.67122006  0.43892675     0.08600
O1565       O  0.15987456  0.74407158  0.40435709    -0.40200
O1566       O  0.14095073  0.72968985  0.39180489    -0.39400
O1567       O  0.18967304  0.65933244  0.40016745    -0.39400
O1568       O  0.20684849  0.67313179  0.41551970    -0.37100
O1569       O  0.17691322  0.65498583  0.46809902    -0.38000
O1570       O  0.20361562  0.65272991  0.46997918    -0.34200
O1571       O  0.20170037  0.73611971  0.44232345    -0.35600
O1572       O  0.20568516  0.72274868  0.41939027    -0.39900
C1573       C  0.14735273  0.75969012  0.23389303    -0.13600
C1574       C  0.15652276  0.74602757  0.23948608     0.16800
C1575       C  0.16533398  0.73644482  0.22781391     0.03100
C1576       C  0.16485808  0.74086682  0.21107703    -0.12100
C1577       C  0.15642003  0.75499701  0.20571905    -0.03100
C1578       C  0.14735351  0.76443363  0.21721597     0.02400
C1579       C  0.15625433  0.74167236  0.25741175     0.09200
N1580       N  0.17536712  0.72264709  0.23273934     0.65500
H1581       H  0.17190406  0.73371607  0.20226812     0.18500
N1582       N  0.13774913  0.77850866  0.21216031     0.76000
H1583       H  0.14002107  0.76666456  0.24259322     0.10000
C1584       C  0.15927865  0.75352805  0.26991073     0.03700
C1585       C  0.15884778  0.74870529  0.28655490    -0.05000
C1586       C  0.15605507  0.73222425  0.29112633    -0.23400
C1587       C  0.15249394  0.72049646  0.27868652     0.12900
C1588       C  0.15247588  0.72540303  0.26208024    -0.12600
N1589       N  0.16352645  0.77029710  0.26600048     0.64600
H1590       H  0.16169423  0.75775197  0.29596718     0.12400
N1591       N  0.14854073  0.70367549  0.28264357     0.61200
H1592       H  0.14941727  0.71640797  0.25268703     0.08600
O1593       O  0.13586080  0.79056838  0.22183206    -0.40200
O1594       O  0.12967037  0.77819865  0.19883770    -0.39400
O1595       O  0.17614211  0.70995521  0.22374201    -0.39400
O1596       O  0.18488275  0.72380540  0.24502778    -0.37100
O1597       O  0.13806424  0.70049739  0.29368477    -0.38000
O1598       O  0.15398246  0.69207088  0.27380004    -0.34200
O1599       O  0.15813457  0.78198202  0.27476901    -0.35600
O1600       O  0.17403758  0.77336627  0.25496410    -0.39900
C1601       C  0.33427744  0.81689910  0.40710810    -0.13600
C1602       C  0.33679895  0.80481698  0.41924327     0.16800
C1603       C  0.34020103  0.78843681  0.41441267     0.03100
C1604       C  0.34117450  0.78453218  0.39761449    -0.12100
C1605       C  0.33835426  0.79646100  0.38527986    -0.03100
C1606       C  0.33508229  0.81291825  0.39024233     0.02400
C1607       C  0.33473025  0.80898880  0.43692188     0.09200
N1608       N  0.34243194  0.77554286  0.42639138     0.65500
H1609       H  0.34366566  0.77183908  0.39424814     0.18500
N1610       N  0.33261784  0.82576871  0.37841560     0.76000
H1611       H  0.33157082  0.82947836  0.41075989     0.10000
C1612       C  0.34827788  0.81170324  0.44760423     0.03700
C1613       C  0.34570554  0.81209350  0.46477500    -0.05000
C1614       C  0.32994638  0.80946911  0.47135945    -0.23400
C1615       C  0.31627841  0.80830829  0.46057160     0.12900
C1616       C  0.31881810  0.80818371  0.44349429    -0.12600
N1617       N  0.36473345  0.81322250  0.44135063     0.64600
H1618       H  0.35625108  0.81274963  0.47298066     0.12400
N1619       N  0.29991196  0.80592786  0.46686934     0.61200
H1620       H  0.30840226  0.80636458  0.43529742     0.08600
O1621       O  0.34493117  0.83315848  0.37248030    -0.40200
O1622       O  0.31838907  0.83173001  0.37630483    -0.39400
O1623       O  0.33194948  0.77341935  0.43767145    -0.39400
O1624       O  0.35378289  0.76503523  0.42454639    -0.37100
O1625       O  0.29500211  0.81404462  0.47920323    -0.38000
O1626       O  0.29015305  0.79601332  0.45986566    -0.34200
O1627       O  0.37398500  0.82459721  0.44658830    -0.35600
O1628       O  0.37070914  0.80216530  0.43217331    -0.39900
C1629       C  0.40954093  0.81652209  0.33396652    -0.13600
C1630       C  0.42174161  0.80429400  0.33326184     0.16800
C1631       C  0.41731218  0.78759336  0.33561234     0.03100
C1632       C  0.40064038  0.78349983  0.33780280    -0.12100
C1633       C  0.38820712  0.79563089  0.33750759    -0.03100
C1634       C  0.39290097  0.81245291  0.33631298     0.02400
C1635       C  0.43878874  0.80912664  0.32883109     0.09200
N1636       N  0.42936777  0.77457660  0.33496657     0.65500
H1637       H  0.39732965  0.77059670  0.33886070     0.18500
N1638       N  0.38110342  0.82556653  0.33786975     0.76000
H1639       H  0.41302766  0.82935691  0.33259709     0.10000
C1640       C  0.44239824  0.81506535  0.31287534     0.03700
C1641       C  0.45882245  0.81804645  0.30855860    -0.05000
C1642       C  0.47183018  0.81478619  0.31955723    -0.23400
C1643       C  0.46815539  0.81005527  0.33591684     0.12900
C1644       C  0.45162126  0.80719054  0.34034737    -0.12600
N1645       N  0.42977463  0.81686307  0.30050257     0.64600
H1646       H  0.46159590  0.82148096  0.29595071     0.12400
N1647       N  0.48099428  0.80714834  0.34779278     0.61200
H1648       H  0.44876557  0.80297508  0.35269104     0.08600
O1649       O  0.38197542  0.83803660  0.32857074    -0.40200
O1650       O  0.37173833  0.82604222  0.35026309    -0.39400
O1651       O  0.42804504  0.76221959  0.34436124    -0.39400
O1652       O  0.44024101  0.77444896  0.32385498    -0.37100
O1653       O  0.49215953  0.81777527  0.34993112    -0.38000
O1654       O  0.47983801  0.79529384  0.35783217    -0.34200
O1655       O  0.43055884  0.82851599  0.29019468    -0.35600
O1656       O  0.41908192  0.80572685  0.29847396    -0.39900
C1657       C  0.34168556  0.74307756  0.26998818    -0.13600
C1658       C  0.34772181  0.75354369  0.25755951     0.16800
C1659       C  0.35181547  0.77004996  0.26180078     0.03100
C1660       C  0.34935319  0.77561623  0.27809831    -0.12100
C1661       C  0.34359987  0.76500069  0.29052354    -0.03100
C1662       C  0.33977539  0.74848056  0.28632813     0.02400
C1663       C  0.34826402  0.74724022  0.24013152     0.09200
N1664       N  0.35901227  0.78112976  0.24996982     0.65500
H1665       H  0.35267377  0.78816299  0.28127825     0.18500
N1666       N  0.33336841  0.73713828  0.29831196     0.76000
H1667       H  0.33798388  0.73062414  0.26687539     0.10000
C1668       C  0.35488290  0.73151734  0.23609952     0.03700
C1669       C  0.35290648  0.72524614  0.22000373    -0.05000
C1670       C  0.34524740  0.73452959  0.20751652    -0.23400
C1671       C  0.33919708  0.75046224  0.21136445     0.12900
C1672       C  0.34058567  0.75647596  0.22757725    -0.12600
N1673       N  0.36401628  0.72196969  0.24799140     0.64600
H1674       H  0.35794628  0.71322781  0.21702576     0.12400
N1675       N  0.33092735  0.76042411  0.19923362     0.61200
H1676       H  0.33507347  0.76828565  0.23052963     0.08600
O1677       O  0.32124491  0.74118623  0.30717424    -0.40200
O1678       O  0.33845767  0.72240612  0.29862994    -0.39400
O1679       O  0.35614426  0.79643146  0.25077695    -0.39400
O1680       O  0.36962830  0.77595978  0.23984394    -0.37100
O1681       O  0.31970079  0.75428782  0.19034759    -0.38000
O1682       O  0.33334387  0.77581202  0.19882712    -0.34200
O1683       O  0.36368864  0.70639534  0.24748236    -0.35600
O1684       O  0.37379176  0.72898395  0.25789052    -0.39900
C1685       C  0.26330973  0.77015062  0.33238982    -0.13600
C1686       C  0.25944550  0.75509005  0.34006527     0.16800
C1687       C  0.27235940  0.74574017  0.34726431     0.03100
C1688       C  0.28868722  0.75149046  0.34628735    -0.12100
C1689       C  0.29258197  0.76665740  0.33877821    -0.03100
C1690       C  0.27955865  0.77609237  0.33190271     0.02400
C1691       C  0.24205482  0.74893491  0.33965273     0.09200
N1692       N  0.26911643  0.73061740  0.35596065     0.65500
H1693       H  0.29838292  0.74417540  0.35188056     0.18500
N1694       N  0.28256295  0.79164536  0.32416416     0.76000
H1695       H  0.25361292  0.77735160  0.32663001     0.10000
C1696       C  0.22860187  0.75861491  0.34515967     0.03700
C1697       C  0.21247612  0.75231064  0.34393663    -0.05000
C1698       C  0.20928815  0.73639085  0.33769912    -0.23400
C1699       C  0.22280626  0.72686254  0.33207793     0.12900
C1700       C  0.23887249  0.73322203  0.33305464    -0.12600
N1701       N  0.23106134  0.77456583  0.35254821     0.64600
H1702       H  0.20238307  0.75977700  0.34847788     0.12400
N1703       N  0.22054215  0.71078304  0.32513983     0.61200
H1704       H  0.24900011  0.72584373  0.32842503     0.08600
O1705       O  0.28428275  0.79239175  0.30872333    -0.40200
O1706       O  0.28112336  0.80478833  0.33238476    -0.39400
O1707       O  0.27931381  0.71884696  0.35533448    -0.39400
O1708       O  0.25696678  0.72956721  0.36560537    -0.37100
O1709       O  0.21345432  0.70924397  0.31135223    -0.38000
O1710       O  0.22784514  0.69852780  0.33142874    -0.34200
O1711       O  0.22059663  0.78591228  0.35034054    -0.35600
O1712       O  0.24267851  0.77684474  0.36268290    -0.39900
C1713       C  0.33904395  0.68235544  0.05271708    -0.13600
C1714       C  0.32927496  0.67741449  0.06617144     0.16800
C1715       C  0.31473129  0.66825352  0.06308434     0.03100
C1716       C  0.30984807  0.66527492  0.04674063    -0.12100
C1717       C  0.31876194  0.67161204  0.03333548    -0.03100
C1718       C  0.33389334  0.67958447  0.03637941     0.02400
C1719       C  0.33336293  0.68364499  0.08301229     0.09200
N1720       N  0.30406568  0.66301044  0.07620711     0.65500
H1721       H  0.29816002  0.65919131  0.04449255     0.18500
N1722       N  0.34326371  0.68645931  0.02315300     0.76000
H1723       H  0.35021823  0.68934433  0.05492134     0.10000
C1724       C  0.33575561  0.67310283  0.09675914     0.03700
C1725       C  0.33700859  0.68003541  0.11267030    -0.05000
C1726       C  0.33614726  0.69721031  0.11524055    -0.23400
C1727       C  0.33397262  0.70764172  0.10136404     0.12900
C1728       C  0.33288073  0.70076673  0.08553024    -0.12600
N1729       N  0.33687736  0.65546465  0.09482887     0.64600
H1730       H  0.33896192  0.67193205  0.12312310     0.12400
N1731       N  0.33183089  0.72513720  0.10310170     0.61200
H1732       H  0.33064865  0.70887154  0.07511791     0.08600
O1733       O  0.35714862  0.68041663  0.01958835    -0.40200
O1734       O  0.33863666  0.69973012  0.01641323    -0.39400
O1735       O  0.29990473  0.67298061  0.08741164    -0.39400
O1736       O  0.29695818  0.64917912  0.07535242    -0.37100
O1737       O  0.33942868  0.73486739  0.09363371    -0.38000
O1738       O  0.32034684  0.73069692  0.11200385    -0.34200
O1739       O  0.34311113  0.64926970  0.08199148    -0.35600
O1740       O  0.33267197  0.64599786  0.10645220    -0.39900
C1741       C  0.31620574  0.67928684  0.94322669    -0.13600
C1742       C  0.31533062  0.66303787  0.93737908     0.16800
C1743       C  0.31606662  0.64978334  0.94879779     0.03100
C1744       C  0.31612489  0.65327538  0.96585317    -0.12100
C1745       C  0.31557929  0.66958577  0.97163166    -0.03100
C1746       C  0.31627287  0.68270339  0.96017198     0.02400
C1747       C  0.31125916  0.66060137  0.91961710     0.09200
N1748       N  0.31582550  0.63287425  0.94332856     0.65500
H1749       H  0.31534065  0.64324118  0.97465094     0.18500
N1750       N  0.31571324  0.69956722  0.96561560     0.76000
H1751       H  0.31578307  0.68943981  0.93452665     0.10000
C1752       C  0.29578335  0.65432450  0.91452834     0.03700
C1753       C  0.29213493  0.65322661  0.89760040    -0.05000
C1754       C  0.30334898  0.65851873  0.88546893    -0.23400
C1755       C  0.31900345  0.66434630  0.89069508     0.12900
C1756       C  0.32264879  0.66552938  0.90760656    -0.12600
N1757       N  0.28337101  0.64964500  0.92628730     0.64600
H1758       H  0.28010087  0.64872752  0.89394896     0.12400
N1759       N  0.33140215  0.66909837  0.87910328     0.61200
H1760       H  0.33455053  0.67027099  0.91142544     0.08600
O1761       O  0.30716135  0.71006953  0.95788010    -0.40200
O1762       O  0.32409674  0.70411934  0.97793358    -0.39400
O1763       O  0.32240927  0.62882990  0.92982876    -0.39400
O1764       O  0.31001011  0.62170952  0.95248860    -0.37100
O1765       O  0.33733848  0.68348364  0.87959120    -0.38000
O1766       O  0.33841378  0.65820934  0.87046631    -0.34200
O1767       O  0.28071643  0.65841091  0.93887377    -0.35600
O1768       O  0.27373514  0.63782235  0.92314755    -0.39900
C1769       C  0.15821654  0.78307016  0.04786760    -0.13600
C1770       C  0.16813576  0.79253406  0.05843642     0.16800
C1771       C  0.18001304  0.80334940  0.05158066     0.03100
C1772       C  0.18223130  0.80364628  0.03436530    -0.12100
C1773       C  0.17333661  0.79297401  0.02404305    -0.03100
C1774       C  0.16070005  0.78318665  0.03079608     0.02400
C1775       C  0.16698191  0.78930830  0.07644021     0.09200
N1776       N  0.19089256  0.81291673  0.06182457     0.65500
H1777       H  0.19230558  0.81075772  0.02924599     0.18500
N1778       N  0.15114264  0.77242159  0.02050213     0.76000
H1779       H  0.14896491  0.77494132  0.05303272     0.10000
C1780       C  0.16268537  0.80155435  0.08812355     0.03700
C1781       C  0.16254577  0.79741421  0.10501606    -0.05000
C1782       C  0.16623839  0.78131700  0.11040518    -0.23400
C1783       C  0.17089562  0.76930058  0.09866899     0.12900
C1784       C  0.17099357  0.77337663  0.08191218    -0.12600
N1785       N  0.15808126  0.81797635  0.08310591     0.64600
H1786       H  0.15884164  0.80662642  0.11395353     0.12400
N1787       N  0.17622115  0.75311187  0.10357607     0.61200
H1788       H  0.17474032  0.76410967  0.07303199     0.08600
O1789       O  0.14496523  0.77774669  0.00721993    -0.40200
O1790       O  0.14833208  0.75775453  0.02493339    -0.39400
O1791       O  0.19748505  0.80657924  0.07445091    -0.39400
O1792       O  0.19557427  0.82700955  0.05713177    -0.37100
O1793       O  0.17151395  0.74059431  0.09559253    -0.38000
O1794       O  0.18725828  0.75147718  0.11446734    -0.34200
O1795       O  0.15015762  0.82032400  0.06988922    -0.35600
O1796       O  0.16071468  0.83007677  0.09255517    -0.39900
C1797       C  0.21030480  0.81150300  0.94363327    -0.13600
C1798       C  0.19660615  0.81889681  0.93606748     0.16800
C1799       C  0.18126423  0.81872878  0.94428270     0.03100
C1800       C  0.17988589  0.81079322  0.95967328    -0.12100
C1801       C  0.19355282  0.80303788  0.96701903    -0.03100
C1802       C  0.20904778  0.80374227  0.95901533     0.02400
C1803       C  0.19856110  0.82512088  0.91890366     0.09200
N1804       N  0.16702315  0.82640229  0.93709146     0.65500
H1805       H  0.16798770  0.81024856  0.96568620     0.18500
N1806       N  0.22360985  0.79661376  0.96627908     0.76000
H1807       H  0.22208166  0.81156715  0.93735480     0.10000
C1808       C  0.21088143  0.83676706  0.91487033     0.03700
C1809       C  0.21516014  0.83918676  0.89824998    -0.05000
C1810       C  0.20728837  0.83047346  0.88546838    -0.23400
C1811       C  0.19432531  0.81949625  0.88955853     0.12900
C1812       C  0.19004800  0.81708470  0.90615556    -0.12600
N1813       N  0.21922075  0.84606728  0.92749898     0.64600
H1814       H  0.22476344  0.84796659  0.89528016     0.12400
N1815       N  0.18626400  0.80966927  0.87726015     0.61200
H1816       H  0.18082963  0.80790499  0.90918175     0.08600
O1817       O  0.22669122  0.79868133  0.98140618    -0.40200
O1818       O  0.23426746  0.78970926  0.95728406    -0.39400
O1819       O  0.15331716  0.81903888  0.93712704    -0.39400
O1820       O  0.16784945  0.84098765  0.93167310    -0.37100
O1821       O  0.19453212  0.79952564  0.86882859    -0.38000
O1822       O  0.17072205  0.80894632  0.87689608    -0.34200
O1823       O  0.23385517  0.85089292  0.92535559    -0.35600
O1824       O  0.21159564  0.85061950  0.94027216    -0.39900
C1825       C  0.21854169  0.72850114  0.01151724    -0.13600
C1826       C  0.23053943  0.72605028  0.99935603     0.16800
C1827       C  0.23035774  0.73603270  0.98505671     0.03100
C1828       C  0.21860310  0.74862693  0.98360723    -0.12100
C1829       C  0.20732742  0.75197954  0.99633664    -0.03100
C1830       C  0.20710362  0.74138690  0.01025756     0.02400
C1831       C  0.24340986  0.71330884  0.00191761     0.09200
N1832       N  0.24251458  0.73419593  0.97231169     0.65500
H1833       H  0.21903567  0.75647684  0.97281355     0.18500
N1834       N  0.19569300  0.74370626  0.02346096     0.76000
H1835       H  0.21839167  0.72065051  0.02233594     0.10000
C1836       C  0.25415314  0.71375898  0.01567679     0.03700
C1837       C  0.26713859  0.70238619  0.01663913    -0.05000
C1838       C  0.26997280  0.69092434  0.00396975    -0.23400
C1839       C  0.25847360  0.68966023  0.99087610     0.12900
C1840       C  0.24532738  0.70087710  0.99004171    -0.12600
N1841       N  0.25280605  0.72626887  0.02817996     0.64600
H1842       H  0.27586275  0.70345514  0.02671549     0.12400
N1843       N  0.25995303  0.67715970  0.97838235     0.61200
H1844       H  0.23668838  0.70014831  0.97986126     0.08600
O1845       O  0.20024475  0.75110317  0.03638496    -0.40200
O1846       O  0.18216812  0.73603185  0.02335099    -0.39400
O1847       O  0.23841886  0.73583784  0.95737002    -0.39400
O1848       O  0.25760524  0.73292492  0.97596344    -0.37100
O1849       O  0.26365261  0.66252838  0.98230667    -0.38000
O1850       O  0.25583401  0.68026568  0.96367845    -0.34200
O1851       O  0.25574058  0.72271332  0.04306252    -0.35600
O1852       O  0.25080286  0.74121197  0.02421704    -0.39900
C1853       C  0.08598146  0.70641913  0.34608714    -0.13600
C1854       C  0.08225248  0.69067735  0.33996955     0.16800
C1855       C  0.09518113  0.68051734  0.33418551     0.03100
C1856       C  0.11147787  0.68655097  0.33439595    -0.12100
C1857       C  0.11521675  0.70248670  0.34029523    -0.03100
C1858       C  0.10214800  0.71237846  0.34631993     0.02400
C1859       C  0.06455118  0.68643772  0.33768563     0.09200
N1860       N  0.09199071  0.66413829  0.32813937     0.65500
H1861       H  0.12128705  0.67870773  0.32986675     0.18500
N1862       N  0.10490769  0.72871957  0.35234361     0.76000
H1863       H  0.07611728  0.71443828  0.35022558     0.10000
C1864       C  0.05326911  0.68711911  0.35097270     0.03700
C1865       C  0.03628082  0.68842498  0.34759890    -0.05000
C1866       C  0.03044156  0.68897126  0.33133444    -0.23400
C1867       C  0.04160481  0.68675010  0.31820942     0.12900
C1868       C  0.05849417  0.68525400  0.32151150    -0.12600
N1869       N  0.05895520  0.68733002  0.36779579     0.64600
H1870       H  0.02768006  0.69015856  0.35764969     0.12400
N1871       N  0.03616321  0.68740827  0.30140124     0.61200
H1872       H  0.06703870  0.68484185  0.31126834     0.08600
O1873       O  0.10793382  0.73097747  0.36744316    -0.40200
O1874       O  0.10194473  0.74095376  0.34315839    -0.39400
O1875       O  0.10084386  0.65805589  0.31688699    -0.39400
O1876       O  0.08115582  0.65521918  0.33485091    -0.37100
O1877       O  0.03894663  0.67534299  0.29197246    -0.38000
O1878       O  0.03149795  0.70095599  0.29526103    -0.34200
O1879       O  0.05066130  0.69455176  0.37880339    -0.35600
O1880       O  0.07167590  0.67932620  0.37194360    -0.39900
C1881       C  0.06496991  0.80497911  0.18992103    -0.13600
C1882       C  0.06481793  0.79870539  0.17381418     0.16800
C1883       C  0.04954932  0.79514776  0.16614427     0.03100
C1884       C  0.03485694  0.79724482  0.17513198    -0.12100
C1885       C  0.03511116  0.80287726  0.19152341    -0.03100
C1886       C  0.05036532  0.80730702  0.19877972     0.02400
C1887       C  0.08091155  0.79415712  0.16634428     0.09200
N1888       N  0.04879656  0.78918916  0.14945475     0.65500
H1889       H  0.02321525  0.79389238  0.16949808     0.18500
N1890       N  0.05127449  0.81404359  0.21515429     0.76000
H1891       H  0.07664837  0.80773977  0.19581201     0.10000
C1892       C  0.09389884  0.80568937  0.16508133     0.03700
C1893       C  0.10995327  0.80002566  0.16191156    -0.05000
C1894       C  0.11342833  0.78311425  0.15986014    -0.23400
C1895       C  0.10014588  0.77176519  0.16015917     0.12900
C1896       C  0.08410878  0.77742981  0.16325501    -0.12600
N1897       N  0.09101976  0.82308516  0.16727368     0.64600
H1898       H  0.11985450  0.80895219  0.16127387     0.12400
N1899       N  0.10273593  0.75434561  0.15863333     0.61200
H1900       H  0.07425181  0.76850048  0.16447596     0.08600
O1901       O  0.06300520  0.81009003  0.22463661    -0.40200
O1902       O  0.04133749  0.82518865  0.21959172    -0.39400
O1903       O  0.03756688  0.77931164  0.14511838    -0.39400
O1904       O  0.05859446  0.79467368  0.13869603    -0.37100
O1905       O  0.11007104  0.74661646  0.17001614    -0.38000
O1906       O  0.09482961  0.74632787  0.14787536    -0.34200
O1907       O  0.10214295  0.83220117  0.17325414    -0.35600
O1908       O  0.07781909  0.82961959  0.16216333    -0.39900
C1909       C  0.01871500  0.76895299  0.26436517    -0.13600
C1910       C  0.00586937  0.77325501  0.27509387     0.16800
C1911       C  0.99515040  0.78636185  0.27090763     0.03100
C1912       C  0.99642442  0.79350413  0.25520507    -0.12100
C1913       C  0.00832615  0.78812435  0.24381976    -0.03100
C1914       C  0.01999803  0.77610503  0.24871558     0.02400
C1915       C  0.00240806  0.76192970  0.28897294     0.09200
N1916       N  0.98261269  0.79203208  0.28212292     0.65500
H1917       H  0.98784537  0.80315754  0.25170084     0.18500
N1918       N  0.03219375  0.76984050  0.23756177     0.76000
H1919       H  0.02692630  0.75887820  0.26758415     0.10000
C1920       C  0.98764280  0.75266870  0.28960937     0.03700
C1921       C  0.98602848  0.74020450  0.30144484    -0.05000
C1922       C  0.99906209  0.73623863  0.31218210    -0.23400
C1923       C  0.01317218  0.74654405  0.31253388     0.12900
C1924       C  0.01473859  0.75912957  0.30077498    -0.12600
N1925       N  0.97478133  0.75469142  0.27753552     0.64600
H1926       H  0.97512433  0.73250684  0.30104795     0.12400
N1927       N  0.02610156  0.74420655  0.32446467     0.61200
H1928       H  0.02584080  0.76655509  0.30054208     0.08600
O1929       O  0.04687903  0.76800788  0.24242825    -0.40200
O1930       O  0.02778688  0.76334221  0.22411091    -0.39400
O1931       O  0.98485943  0.79124950  0.29751559    -0.39400
O1932       O  0.96970611  0.79890089  0.27670036    -0.37100
O1933       O  0.04097810  0.74634324  0.32044935    -0.38000
O1934       O  0.02260109  0.74163690  0.33940877    -0.34200
O1935       O  0.97819912  0.75495411  0.26235830    -0.35600
O1936       O  0.95986849  0.75375167  0.28185769    -0.39900
C1937       C  0.79289628  0.48308182  0.24441670    -0.13600
C1938       C  0.77996548  0.49452745  0.24312635     0.16800
C1939       C  0.77760797  0.50632726  0.25575955     0.03100
C1940       C  0.78831958  0.50641014  0.26929971    -0.12100
C1941       C  0.80089374  0.49460940  0.27090087    -0.03100
C1942       C  0.80350458  0.48305876  0.25811382     0.02400
C1943       C  0.76852508  0.49343698  0.22893842     0.09200
N1944       N  0.76395262  0.51768540  0.25554276     0.65500
H1945       H  0.78611482  0.51509029  0.27918394     0.18500
N1946       N  0.81713035  0.47171557  0.25854395     0.76000
H1947       H  0.79479424  0.47424264  0.23461562     0.10000
C1948       C  0.76511383  0.50718619  0.21872020     0.03700
C1949       C  0.75119322  0.50672339  0.20842223    -0.05000
C1950       C  0.74102782  0.49272817  0.20774239    -0.23400
C1951       C  0.74538464  0.47851507  0.21690999     0.12900
C1952       C  0.75916862  0.47900746  0.22727021    -0.12600
N1953       N  0.77530389  0.52174041  0.21904646     0.64600
H1954       H  0.74813271  0.51743138  0.20098914     0.12400
N1955       N  0.73517512  0.46407108  0.21712675     0.61200
H1956       H  0.76177052  0.46847585  0.23513269     0.08600
O1957       O  0.83115889  0.47659735  0.26320562    -0.40200
O1958       O  0.81581399  0.45763104  0.25201576    -0.39400
O1959       O  0.74967264  0.51276088  0.25176196    -0.39400
O1960       O  0.76570890  0.53209785  0.26119461    -0.37100
O1961       O  0.74162027  0.44999286  0.21536841    -0.38000
O1962       O  0.72039762  0.46511423  0.22187302    -0.34200
O1963       O  0.79053928  0.52063889  0.22209727    -0.35600
O1964       O  0.76939005  0.53559901  0.21501885    -0.39900
C1965       C  0.59751712  0.66795477  0.18411064    -0.13600
C1966       C  0.58459753  0.66629954  0.19545761     0.16800
C1967       C  0.58811719  0.66015715  0.21143283     0.03100
C1968       C  0.60451214  0.65649005  0.21579013    -0.12100
C1969       C  0.61764098  0.65920286  0.20479615    -0.03100
C1970       C  0.61387684  0.66462734  0.18860975     0.02400
C1971       C  0.56778714  0.67203660  0.19069757     0.09200
N1972       N  0.57543826  0.65837428  0.22366603     0.65500
H1973       H  0.60705026  0.65227863  0.22821401     0.18500
N1974       N  0.62649875  0.66723865  0.17663603     0.76000
H1975       H  0.59492586  0.67240102  0.17176703     0.10000
C1976       C  0.56494554  0.68857354  0.18585446     0.03700
C1977       C  0.54878223  0.69390438  0.18285844    -0.05000
C1978       C  0.53522188  0.68339084  0.18512720    -0.23400
C1979       C  0.53809624  0.66658352  0.18884431     0.12900
C1980       C  0.55436473  0.66109126  0.19153545    -0.12600
N1981       N  0.57807152  0.70047154  0.18521470     0.64600
H1982       H  0.54666474  0.70683457  0.18014774     0.12400
N1983       N  0.52470940  0.65526018  0.19110583     0.61200
H1984       H  0.55652393  0.64832068  0.19487127     0.08600
O1985       O  0.63142941  0.68169855  0.17364288    -0.40200
O1986       O  0.63095057  0.65549862  0.16744251    -0.39400
O1987       O  0.57587101  0.64638486  0.23361165    -0.39400
O1988       O  0.56500740  0.66972952  0.22590815    -0.37100
O1989       O  0.51425777  0.65320847  0.17973834    -0.38000
O1990       O  0.52480461  0.64544572  0.20320182    -0.34200
O1991       O  0.57811646  0.71138912  0.17409986    -0.35600
O1992       O  0.58830234  0.70153921  0.19692594    -0.39900
C1993       C  0.66287888  0.57795641  0.21031466    -0.13600
C1994       C  0.67467350  0.57412591  0.19830716     0.16800
C1995       C  0.68187996  0.58700183  0.18902577     0.03100
C1996       C  0.67773452  0.60345699  0.19267664    -0.12100
C1997       C  0.66685840  0.60738032  0.20559223    -0.03100
C1998       C  0.65875445  0.59436017  0.21396256     0.02400
C1999       C  0.68024396  0.55674420  0.19682256     0.09200
N2000       N  0.69412659  0.58374567  0.17663982     0.65500
H2001       H  0.68397312  0.61327010  0.18611539     0.18500
N2002       N  0.64633294  0.59750961  0.22614940     0.76000
H2003       H  0.65706015  0.56804827  0.21713228     0.10000
C2004       C  0.68864905  0.54903180  0.21000336     0.03700
C2005       C  0.69402601  0.53272780  0.20822699    -0.05000
C2006       C  0.69173115  0.52392977  0.19345569    -0.23400
C2007       C  0.68268160  0.53139720  0.18051873     0.12900
C2008       C  0.67712098  0.54778156  0.18231240    -0.12600
N2009       N  0.69262426  0.55781061  0.22491691     0.64600
H2010       H  0.70092050  0.52714608  0.21825065     0.12400
N2011       N  0.67963996  0.52290319  0.16532223     0.61200
H2012       H  0.67044199  0.55361875  0.17229539     0.08600
O2013       O  0.64596403  0.58908952  0.23924856    -0.40200
O2014       O  0.63448957  0.60711604  0.22290087    -0.39400
O2015       O  0.69484451  0.59268534  0.16390574    -0.39400
O2016       O  0.70537619  0.57325795  0.17918933    -0.37100
O2017       O  0.67105585  0.50992110  0.16531258    -0.38000
O2018       O  0.68270085  0.52995449  0.15179131    -0.34200
O2019       O  0.69254758  0.55036807  0.23859860    -0.35600
O2020       O  0.69816813  0.57235428  0.22427330    -0.39900
C2021       C  0.90876972  0.66457206  0.32397708    -0.13600
C2022       C  0.92084634  0.66796316  0.31208195     0.16800
C2023       C  0.91676754  0.66629250  0.29518493     0.03100
C2024       C  0.90063983  0.66181961  0.29066165    -0.12100
C2025       C  0.88827716  0.65936421  0.30253560    -0.03100
C2026       C  0.89260786  0.66026351  0.31945508     0.02400
C2027       C  0.93745436  0.67365686  0.31757728     0.09200
N2028       N  0.92850303  0.66993843  0.28244310     0.65500
H2029       H  0.89752201  0.66123005  0.27768145     0.18500
N2030       N  0.88092045  0.65656880  0.33220015     0.76000
H2031       H  0.91196418  0.66533511  0.33693331     0.10000
C2032       C  0.93930652  0.68795804  0.32741021     0.03700
C2033       C  0.95516841  0.69362291  0.33133661    -0.05000
C2034       C  0.96933613  0.68557480  0.32548960    -0.23400
C2035       C  0.96750443  0.67078524  0.31648789     0.12900
C2036       C  0.95163322  0.66496044  0.31264619    -0.12600
N2037       N  0.92531724  0.69752152  0.33257260     0.64600
H2038       H  0.95644298  0.70508958  0.33809531     0.12400
N2039       N  0.98154577  0.66230503  0.31001992     0.61200
H2040       H  0.95036070  0.65384614  0.30533197     0.08600
O2041       O  0.88047107  0.66525937  0.34511045    -0.40200
O2042       O  0.87266221  0.64337916  0.33161087    -0.39400
O2043       O  0.92881045  0.66134534  0.26946405    -0.39400
O2044       O  0.93720027  0.68283056  0.28321718    -0.37100
O2045       O  0.99076581  0.65411788  0.31955611    -0.38000
O2046       O  0.98351620  0.66123338  0.29462647    -0.34200
O2047       O  0.92487519  0.70348096  0.34694513    -0.35600
O2048       O  0.91436836  0.70167139  0.32227542    -0.39900
C2049       C  0.83238616  0.58712221  0.32561340    -0.13600
C2050       C  0.83678966  0.57434175  0.31483907     0.16800
C2051       C  0.84319894  0.57827197  0.29912326     0.03100
C2052       C  0.84483841  0.59486651  0.29453390    -0.12100
C2053       C  0.83972814  0.60776483  0.30495957    -0.03100
C2054       C  0.83375853  0.60371503  0.32086025     0.02400
C2055       C  0.83311521  0.55701660  0.31941433     0.09200
N2056       N  0.84732985  0.56565832  0.28734868     0.65500
H2057       H  0.84949144  0.59762141  0.28233499     0.18500
N2058       N  0.82859627  0.61618192  0.33220280     0.76000
H2059       H  0.82737890  0.58416425  0.33763419     0.10000
C2060       C  0.84553510  0.54472931  0.32016043     0.03700
C2061       C  0.84089375  0.52800630  0.31932644    -0.05000
C2062       C  0.82427771  0.52350894  0.31782332    -0.23400
C2063       C  0.81189887  0.53572826  0.31899078     0.12900
C2064       C  0.81649315  0.55236470  0.31984118    -0.12600
N2065       N  0.86275428  0.54905897  0.32056837     0.64600
H2066       H  0.85029986  0.51854515  0.31840980     0.12400
N2067       N  0.79469752  0.53145369  0.31801699     0.61200
H2068       H  0.80703063  0.56181898  0.31952118     0.08600
O2069       O  0.83706043  0.61895151  0.34498030    -0.40200
O2070       O  0.81435212  0.62234771  0.33092417    -0.39400
O2071       O  0.83754002  0.55385398  0.28465191    -0.39400
O2072       O  0.85967417  0.56745914  0.27807085    -0.37100
O2073       O  0.78954445  0.51814377  0.32424923    -0.38000
O2074       O  0.78444973  0.54131238  0.31160686    -0.34200
O2075       O  0.86742129  0.56234689  0.32722524    -0.35600
O2076       O  0.87349640  0.53913737  0.31520853    -0.39900
C2077       C  0.76414999  0.65450507  0.27377915    -0.13600
C2078       C  0.76117980  0.64738975  0.25826948     0.16800
C2079       C  0.77471322  0.64128329  0.24910376     0.03100
C2080       C  0.79078286  0.64281158  0.25552027    -0.12100
C2081       C  0.79380218  0.64990295  0.27109295    -0.03100
C2082       C  0.78013724  0.65561270  0.28031747     0.02400
C2083       C  0.74403549  0.64758121  0.25146443     0.09200
N2084       N  0.77237950  0.63326186  0.23344847     0.65500
H2085       H  0.80099215  0.63813782  0.24832098     0.18500
N2086       N  0.78220005  0.66278341  0.29628011     0.76000
H2087       H  0.75394347  0.65941355  0.28084605     0.10000
C2088       C  0.73046319  0.64108091  0.26029062     0.03700
C2089       C  0.71441348  0.64295242  0.25387991    -0.05000
C2090       C  0.71147734  0.65079625  0.23864979    -0.23400
C2091       C  0.72516926  0.65698759  0.22979706     0.12900
C2092       C  0.74113032  0.65542084  0.23628858    -0.12600
N2093       N  0.73274530  0.63221801  0.27550750     0.64600
H2094       H  0.70416946  0.63784901  0.26072095     0.12400
N2095       N  0.72314386  0.66529175  0.21436722     0.61200
H2096       H  0.75135719  0.66069468  0.22953273     0.08600
O2097       O  0.78198588  0.65368381  0.30891242    -0.40200
O2098       O  0.78185948  0.67826856  0.29791057    -0.39400
O2099       O  0.78306193  0.63473778  0.22224783    -0.39400
O2100       O  0.76050100  0.62343095  0.23129637    -0.37100
O2101       O  0.71872200  0.68023114  0.21410658    -0.38000
O2102       O  0.72790159  0.65844586  0.20123728    -0.34200
O2103       O  0.72192818  0.63295018  0.28665345    -0.35600
O2104       O  0.74468042  0.62233632  0.27720997    -0.39900
C2105       C  0.58815102  0.82909535  0.29067508    -0.13600
C2106       C  0.58395665  0.83234902  0.30714588     0.16800
C2107       C  0.59670019  0.83444032  0.31890621     0.03100
C2108       C  0.61325403  0.83332888  0.31378411    -0.12100
C2109       C  0.61742269  0.83045504  0.29718703    -0.03100
C2110       C  0.60460100  0.82806480  0.28556341     0.02400
C2111       C  0.56615082  0.83191736  0.31164585     0.09200
N2112       N  0.59312606  0.83813816  0.33588191     0.65500
H2113       H  0.62296313  0.83534465  0.32274580     0.18500
N2114       N  0.60795526  0.82388864  0.26869168     0.76000
H2115       H  0.57846620  0.82679741  0.28174323     0.10000
C2116       C  0.55430879  0.84112623  0.30260795     0.03700
C2117       C  0.53756607  0.83691905  0.30385382    -0.05000
C2118       C  0.53238038  0.82401336  0.31407568    -0.23400
C2119       C  0.54392889  0.81607383  0.32432412     0.12900
C2120       C  0.56070610  0.82000531  0.32301698    -0.12600
N2121       N  0.55917378  0.85404294  0.29144138     0.64600
H2122       H  0.52863400  0.84295776  0.29592562     0.12400
N2123       N  0.53896622  0.80287170  0.33488522     0.61200
H2124       H  0.56960595  0.81281581  0.32995496     0.08600
O2125       O  0.59953204  0.83032282  0.25725393    -0.40200
O2126       O  0.61746684  0.81200499  0.26536642    -0.39400
O2127       O  0.60278241  0.83335843  0.34715477    -0.39400
O2128       O  0.58118052  0.84742145  0.33958167    -0.37100
O2129       O  0.53572241  0.80572861  0.34982201    -0.38000
O2130       O  0.53918116  0.78819541  0.32968861    -0.34200
O2131       O  0.55072255  0.85704479  0.27868554    -0.35600
O2132       O  0.57129794  0.86321106  0.29480995    -0.39900
C2133       C  0.65566950  0.75563996  0.27125445    -0.13600
C2134       C  0.66556260  0.75133126  0.25768254     0.16800
C2135       C  0.67484075  0.76382459  0.24974210     0.03100
C2136       C  0.67347129  0.78023330  0.25516508    -0.12100
C2137       C  0.66378857  0.78442796  0.26883986    -0.03100
C2138       C  0.65486406  0.77196381  0.27710306     0.02400
C2139       C  0.66515111  0.73400196  0.25134219     0.09200
N2140       N  0.68611119  0.76003152  0.23659651     0.65500
H2141       H  0.68062063  0.78974800  0.24910873     0.18500
N2142       N  0.64454333  0.77567518  0.29101994     0.76000
H2143       H  0.64821703  0.74626340  0.27713624     0.10000
C2144       C  0.66735354  0.72016454  0.26180795     0.03700
C2145       C  0.66601645  0.70417460  0.25522448    -0.05000
C2146       C  0.66304913  0.70151937  0.23834772    -0.23400
C2147       C  0.66065563  0.71533545  0.22792660     0.12900
C2148       C  0.66164382  0.73131869  0.23456378    -0.12600
N2149       N  0.67152857  0.72204169  0.27895051     0.64600
H2150       H  0.66808137  0.69369282  0.26326698     0.12400
N2151       N  0.65663234  0.71344210  0.21077041     0.61200
H2152       H  0.65933577  0.74179565  0.22658267     0.08600
O2153       O  0.64285652  0.76524033  0.30246001    -0.40200
O2154       O  0.63584961  0.78861097  0.29119824    -0.39400
O2155       O  0.68857808  0.77036596  0.22520912    -0.39400
O2156       O  0.69501292  0.74725070  0.23730303    -0.37100
O2157       O  0.64533990  0.70365114  0.20639843    -0.38000
O2158       O  0.66271934  0.72314781  0.20023662    -0.34200
O2159       O  0.66602202  0.71197909  0.28947344    -0.35600
O2160       O  0.68205965  0.73261488  0.28339833    -0.39900
C2161       C  0.92002781  0.83150505  0.21222053    -0.13600
C2162       C  0.92341697  0.82059702  0.19922992     0.16800
C2163       C  0.91019124  0.81294216  0.19079837     0.03100
C2164       C  0.89393675  0.81616690  0.19585756    -0.12100
C2165       C  0.89054139  0.82683509  0.20910784    -0.03100
C2166       C  0.90382217  0.83477095  0.21713560     0.02400
C2167       C  0.94083112  0.81571665  0.19641896     0.09200
N2168       N  0.91303787  0.80176519  0.17730226     0.65500
H2169       H  0.88387411  0.81004824  0.18955035     0.18500
N2170       N  0.90110797  0.84618162  0.23030598     0.76000
H2171       H  0.93010290  0.83725329  0.21886932     0.10000
C2172       C  0.95330452  0.82739535  0.19280861     0.03700
C2173       C  0.96995347  0.82251458  0.19369574    -0.05000
C2174       C  0.97427012  0.80634440  0.19809671    -0.23400
C2175       C  0.96177189  0.79447462  0.20053287     0.12900
C2176       C  0.94523004  0.79931342  0.19974354    -0.12600
N2177       N  0.94930377  0.84426468  0.18889199     0.64600
H2178       H  0.97958570  0.83160109  0.19198804     0.12400
N2179       N  0.96576031  0.77768633  0.20471384     0.61200
H2180       H  0.93571037  0.79036396  0.20250298     0.08600
O2181       O  0.89503393  0.86021854  0.22730199    -0.40200
O2182       O  0.90631097  0.84291016  0.24461967    -0.39400
O2183       O  0.90319689  0.78999686  0.17462259    -0.39400
O2184       O  0.92469216  0.80425498  0.16731747    -0.37100
O2185       O  0.95717539  0.76991218  0.21509815    -0.38000
O2186       O  0.97743252  0.77033129  0.19751138    -0.34200
O2187       O  0.95917927  0.85573303  0.19256534    -0.35600
O2188       O  0.93646110  0.84768197  0.18074175    -0.39900
C2189       C  0.84079160  0.76288549  0.26105712    -0.13600
C2190       C  0.84576522  0.75034578  0.25019473     0.16800
C2191       C  0.84947263  0.75452360  0.23363390     0.03100
C2192       C  0.84808717  0.77105837  0.22848175    -0.12100
C2193       C  0.84362371  0.78362084  0.23953531    -0.03100
C2194       C  0.83976556  0.77940192  0.25601025     0.02400
C2195       C  0.84582581  0.73295055  0.25629916     0.09200
N2196       N  0.85515875  0.74234263  0.22206171     0.65500
H2197       H  0.85124312  0.77424718  0.21590912     0.18500
N2198       N  0.83417426  0.79155622  0.26762453     0.76000
H2199       H  0.83729539  0.75973308  0.27354794     0.10000
C2200       C  0.85349235  0.72850245  0.27140054     0.03700
C2201       C  0.85136874  0.71247119  0.27764192    -0.05000
C2202       C  0.84251732  0.70051550  0.26883250    -0.23400
C2203       C  0.83525329  0.70474688  0.25354842     0.12900
C2204       C  0.83680834  0.72095258  0.24760217    -0.12600
N2205       N  0.86384278  0.73987980  0.28027191     0.64600
H2206       H  0.85729531  0.70906023  0.28913927     0.12400
N2207       N  0.82577358  0.69300192  0.24422660     0.61200
H2208       H  0.83052651  0.72434982  0.23629923     0.08600
O2209       O  0.83897404  0.79094023  0.28243548    -0.40200
O2210       O  0.82280140  0.80148003  0.26371367    -0.39400
O2211       O  0.85133056  0.74350202  0.20700331    -0.39400
O2212       O  0.86534127  0.73139200  0.22648594    -0.37100
O2213       O  0.81568067  0.68356830  0.25137588    -0.38000
O2214       O  0.82618866  0.69321685  0.22866596    -0.34200
O2215       O  0.86468704  0.73924329  0.29580886    -0.35600
O2216       O  0.87349989  0.74935491  0.27259024    -0.39900
C2217       C  0.76676412  0.82907118  0.23705769    -0.13600
C2218       C  0.76346365  0.83640112  0.25236366     0.16800
C2219       C  0.77673747  0.84245691  0.26192829     0.03100
C2220       C  0.79292846  0.84094709  0.25595632    -0.12100
C2221       C  0.79627563  0.83375787  0.24051246    -0.03100
C2222       C  0.78288668  0.82763007  0.23106499     0.02400
C2223       C  0.74615236  0.83657225  0.25844052     0.09200
N2224       N  0.77399924  0.85051059  0.27747790     0.65500
H2225       H  0.80294515  0.84583930  0.26331900     0.18500
N2226       N  0.78535343  0.81936778  0.21565111     0.76000
H2227       H  0.75670921  0.82398656  0.22986096     0.10000
C2228       C  0.73315185  0.84326834  0.24888917     0.03700
C2229       C  0.71683633  0.84165304  0.25439512    -0.05000
C2230       C  0.71306884  0.83382790  0.26942016    -0.23400
C2231       C  0.72616939  0.82738857  0.27901630     0.12900
C2232       C  0.74245468  0.82874676  0.27343440    -0.12600
N2233       N  0.73629450  0.85199737  0.23377408     0.64600
H2234       H  0.70704121  0.84694755  0.24698820     0.12400
N2235       N  0.72318419  0.81897147  0.29420651     0.61200
H2236       H  0.75227929  0.82329065  0.28069874     0.08600
O2237       O  0.77749133  0.82404140  0.20302879    -0.40200
O2238       O  0.79294749  0.80575968  0.21532238    -0.39400
O2239       O  0.78412932  0.84860920  0.28917408    -0.39400
O2240       O  0.76231632  0.86068856  0.27911751    -0.37100
O2241       O  0.71895491  0.80398671  0.29406149    -0.38000
O2242       O  0.72674240  0.82585156  0.30770807    -0.34200
O2243       O  0.72629645  0.85092862  0.22186425    -0.35600
O2244       O  0.74819872  0.86197445  0.23279318    -0.39900
C2245       C  0.66953945  0.18194452  0.55442125    -0.13600
C2246       C  0.67985195  0.18068219  0.56831735     0.16800
C2247       C  0.69595667  0.17427171  0.56644214     0.03100
C2248       C  0.70169622  0.17038094  0.55062764    -0.12100
C2249       C  0.69187036  0.17296183  0.53658283    -0.03100
C2250       C  0.67537182  0.17811424  0.53858319     0.02400
C2251       C  0.67397071  0.18689820  0.58450609     0.09200
N2252       N  0.70708786  0.17288144  0.58018567     0.65500
H2253       H  0.71443764  0.16662369  0.54914535     0.18500
N2254       N  0.66487257  0.18085584  0.52461696     0.76000
H2255       H  0.65707024  0.18653350  0.55583721     0.10000
C2256       C  0.66939131  0.20358446  0.58671251     0.03700
C2257       C  0.66490912  0.20918481  0.60244852    -0.05000
C2258       C  0.66520257  0.19863675  0.61623837    -0.23400
C2259       C  0.66901962  0.18170142  0.61376502     0.12900
C2260       C  0.67341871  0.17611252  0.59800386    -0.12600
N2261       N  0.67007690  0.21521289  0.57335232     0.64600
H2262       H  0.66203441  0.22214722  0.60400285     0.12400
N2263       N  0.66847319  0.16995308  0.62698394     0.61200
H2264       H  0.67653318  0.16321972  0.59626556     0.08600
O2265       O  0.65753685  0.19450456  0.52292520    -0.40200
O2266       O  0.66109088  0.16895645  0.51531574    -0.39400
O2267       O  0.71642617  0.16046177  0.58142843    -0.39400
O2268       O  0.70910227  0.18488167  0.58990926    -0.37100
O2269       O  0.65515561  0.16761006  0.63465258    -0.38000
O2270       O  0.68030891  0.16003465  0.62910877    -0.34200
O2271       O  0.65885336  0.22589845  0.57168382    -0.35600
O2272       O  0.68270930  0.21602535  0.56432376    -0.39900
C2273       C  0.82255655  0.30925627  0.56012627    -0.13600
C2274       C  0.83750926  0.30148485  0.56423757     0.16800
C2275       C  0.84819011  0.29627370  0.55141753     0.03100
C2276       C  0.84289511  0.29762703  0.53492994    -0.12100
C2277       C  0.82742323  0.30428821  0.53104845    -0.03100
C2278       C  0.81754600  0.31078225  0.54369040     0.02400
C2279       C  0.84012692  0.29634695  0.58168515     0.09200
N2280       N  0.86396887  0.28890246  0.55496938     0.65500
H2281       H  0.85039230  0.29249794  0.52515231     0.18500
N2282       N  0.80172548  0.31767896  0.54003669     0.76000
H2283       H  0.81419920  0.31316336  0.56976587     0.10000
C2284       C  0.83878689  0.30751711  0.59501823     0.03700
C2285       C  0.83875851  0.30137199  0.61125495    -0.05000
C2286       C  0.84021056  0.28436525  0.61459949    -0.23400
C2287       C  0.84177659  0.27331325  0.60114772     0.12900
C2288       C  0.84177612  0.27942642  0.58499984    -0.12600
N2289       N  0.83761521  0.32504705  0.59233111     0.64600
H2290       H  0.83786345  0.31003344  0.62137278     0.12400
N2291       N  0.84259740  0.25578961  0.60346756     0.61200
H2292       H  0.84226733  0.27073324  0.57486427     0.08600
O2293       O  0.80061413  0.33228355  0.53473263    -0.40200
O2294       O  0.78882993  0.30935502  0.54252105    -0.39400
O2295       O  0.87010122  0.27838735  0.54525945    -0.39400
O2296       O  0.87236392  0.29368099  0.56719502    -0.37100
O2297       O  0.83049747  0.24826323  0.60969661    -0.38000
O2298       O  0.85385716  0.24758469  0.59653188    -0.34200
O2299       O  0.82986011  0.33404143  0.60239241    -0.35600
O2300       O  0.84540147  0.33179619  0.58067808    -0.39900
C2301       C  0.76748315  0.25193145  0.49101156    -0.13600
C2302       C  0.77089114  0.23895711  0.50195733     0.16800
C2303       C  0.78512062  0.23964044  0.51204917     0.03100
C2304       C  0.79497878  0.25384161  0.51163862    -0.12100
C2305       C  0.79132865  0.26703819  0.50100031    -0.03100
C2306       C  0.77745364  0.26600599  0.49046135     0.02400
C2307       C  0.75871570  0.22544202  0.50329449     0.09200
N2308       N  0.78979195  0.22608223  0.52258045     0.65500
H2309       H  0.80587566  0.25441904  0.51937336     0.18500
N2310       N  0.77275233  0.27941112  0.47984008     0.76000
H2311       H  0.75650411  0.25143617  0.48337707     0.10000
C2312       C  0.75056459  0.22185739  0.51826168     0.03700
C2313       C  0.73919221  0.20885283  0.51874119    -0.05000
C2314       C  0.73528273  0.19964976  0.50454305    -0.23400
C2315       C  0.74366942  0.20327393  0.48964899     0.12900
C2316       C  0.75514331  0.21612492  0.48920355    -0.12600
N2317       N  0.75318375  0.23160061  0.53287170     0.64600
H2318       H  0.73281408  0.20646256  0.53020850     0.12400
N2319       N  0.74078247  0.19412057  0.47482739     0.61200
H2320       H  0.76146742  0.21877901  0.47774519     0.08600
O2321       O  0.77139143  0.29383441  0.48557342    -0.40200
O2322       O  0.76768686  0.27649627  0.46539998    -0.39400
O2323       O  0.78719469  0.21136608  0.51817191    -0.39400
O2324       O  0.79795259  0.22869722  0.53559854    -0.37100
O2325       O  0.73538543  0.20138996  0.46214186    -0.38000
O2326       O  0.74577235  0.17939843  0.47372201    -0.34200
O2327       O  0.75436038  0.24711102  0.53192629    -0.35600
O2328       O  0.75253595  0.22492021  0.54692556    -0.39900
C2329       C  0.68933806  0.16734255  0.44785810    -0.13600
C2330       C  0.69768692  0.15295485  0.44296200     0.16800
C2331       C  0.70436624  0.14237400  0.45520803     0.03100
C2332       C  0.70418819  0.14744383  0.47179199    -0.12100
C2333       C  0.69726246  0.16260359  0.47635664    -0.03100
C2334       C  0.68915689  0.17228346  0.46439630     0.02400
C2335       C  0.70213646  0.15113709  0.42523160     0.09200
N2336       N  0.71202194  0.12693744  0.45088974     0.65500
H2337       H  0.71040008  0.14004144  0.48104619     0.18500
N2338       N  0.68188417  0.18782868  0.46863024     0.76000
H2339       H  0.68426298  0.17559297  0.43863001     0.10000
C2340       C  0.69033842  0.15223907  0.41240423     0.03700
C2341       C  0.69573708  0.15321857  0.39594381    -0.05000
C2342       C  0.71261477  0.15294861  0.39188118    -0.23400
C2343       C  0.72432928  0.15163366  0.40481077     0.12900
C2344       C  0.71894759  0.15064966  0.42118240    -0.12600
N2345       N  0.67293100  0.15218765  0.41582543     0.64600
H2346       H  0.68661459  0.15387997  0.38619781     0.12400
N2347       N  0.74173518  0.15219005  0.40176088     0.61200
H2348       H  0.72808389  0.15039644  0.43095001     0.08600
O2349       O  0.66680489  0.19035164  0.46568955    -0.40200
O2350       O  0.69091152  0.19975458  0.47294823    -0.39400
O2351       O  0.72355616  0.12112011  0.45962777    -0.39400
O2352       O  0.70651905  0.11847627  0.43902471    -0.37100
O2353       O  0.74790720  0.16454600  0.39457830    -0.38000
O2354       O  0.75118292  0.14199900  0.40884030    -0.34200
O2355       O  0.66301648  0.15959595  0.40633468    -0.35600
O2356       O  0.66724420  0.14367403  0.42754633    -0.39900
C2357       C  0.76875575  0.15686607  0.24056423    -0.13600
C2358       C  0.75356033  0.14971170  0.24457278     0.16800
C2359       C  0.74355578  0.14327909  0.23181670     0.03100
C2360       C  0.74910460  0.14406024  0.21540493    -0.12100
C2361       C  0.76447672  0.15103350  0.21133847    -0.03100
C2362       C  0.77423996  0.15778408  0.22421133     0.02400
C2363       C  0.74815584  0.15001486  0.26210107     0.09200
N2364       N  0.72798457  0.13558674  0.23531194     0.65500
H2365       H  0.74146126  0.13879367  0.20579308     0.18500
N2366       N  0.78938425  0.16627652  0.22096707     0.76000
H2367       H  0.77623457  0.16226468  0.25024721     0.10000
C2368       C  0.75776854  0.14275440  0.27473166     0.03700
C2369       C  0.75306678  0.14483504  0.29125095    -0.05000
C2370       C  0.73880956  0.15373446  0.29561474    -0.23400
C2371       C  0.72924281  0.16103186  0.28288658     0.12900
C2372       C  0.73396188  0.15896601  0.26634868    -0.12600
N2373       N  0.77208091  0.13293170  0.27100969     0.64600
H2374       H  0.76039894  0.13894155  0.30075705     0.12400
N2375       N  0.71517332  0.17115811  0.28644677     0.61200
H2376       H  0.72682035  0.16492518  0.25672703     0.08600
O2377       O  0.80208965  0.16291207  0.22934721    -0.40200
O2378       O  0.78925558  0.17912986  0.21216053    -0.39400
O2379       O  0.71605422  0.13720248  0.22540899    -0.39400
O2380       O  0.72649912  0.12601362  0.24750742    -0.37100
O2381       O  0.70208639  0.16946451  0.27816131    -0.38000
O2382       O  0.71669370  0.18353573  0.29578002    -0.34200
O2383       O  0.78419878  0.13268590  0.28081176    -0.35600
O2384       O  0.77204812  0.12326709  0.25879956    -0.39900
C2385       C  0.71794096  0.40889932  0.16303570    -0.13600
C2386       C  0.70146638  0.41332770  0.16579287     0.16800
C2387       C  0.68937026  0.40080936  0.16689660     0.03100
C2388       C  0.69428705  0.38414524  0.16593424    -0.12100
C2389       C  0.71091837  0.37965966  0.16366476    -0.03100
C2390       C  0.72279672  0.39236135  0.16210144     0.02400
C2391       C  0.69790133  0.43100291  0.16922588     0.09200
N2392       N  0.67219690  0.40475731  0.16907242     0.65500
H2393       H  0.68498781  0.37461157  0.16683042     0.18500
N2394       N  0.73998315  0.38879156  0.16034525     0.76000
H2395       H  0.72731115  0.41841214  0.16240582     0.10000
C2396       C  0.69251765  0.43637906  0.18495171     0.03700
C2397       C  0.69228247  0.45334264  0.18847722    -0.05000
C2398       C  0.69789576  0.46494121  0.17697313    -0.23400
C2399       C  0.70214680  0.45969417  0.16102826     0.12900
C2400       C  0.70193178  0.44282950  0.15720073    -0.12600
N2401       N  0.68872947  0.42491352  0.19794027     0.64600
H2402       H  0.68947179  0.45735740  0.20090876     0.12400
N2403       N  0.70820791  0.47120013  0.14913868     0.61200
H2404       H  0.70606120  0.43885064  0.14513862     0.08600
O2405       O  0.74822050  0.38402935  0.17269296    -0.40200
O2406       O  0.74738409  0.39282482  0.14728355    -0.39400
O2407       O  0.66615299  0.41771065  0.16283668    -0.39400
O2408       O  0.66272057  0.39471539  0.17624522    -0.37100
O2409       O  0.72297360  0.47604524  0.14985457    -0.38000
O2410       O  0.69928163  0.47532543  0.13705458    -0.34200
O2411       O  0.69817945  0.41286613  0.20088108    -0.35600
O2412       O  0.67730076  0.42814061  0.20798051    -0.39900
C2413       C  0.76773741  0.22856091  0.16863960    -0.13600
C2414       C  0.75222641  0.23220343  0.16188880     0.16800
C2415       C  0.74258089  0.21930376  0.15518917     0.03100
C2416       C  0.74868307  0.20306038  0.15567541    -0.12100
C2417       C  0.76434304  0.19936247  0.16228352    -0.03100
C2418       C  0.77389582  0.21242001  0.16884755     0.02400
C2419       C  0.74664168  0.24965479  0.16191235     0.09200
N2420       N  0.72679058  0.22243447  0.14765310     0.65500
H2421       H  0.74121533  0.19327685  0.15048353     0.18500
N2422       N  0.78979176  0.20959170  0.17597053     0.76000
H2423       H  0.77517211  0.23840263  0.17380863     0.10000
C2424       C  0.73241135  0.25499918  0.17045704     0.03700
C2425       C  0.72777898  0.27172149  0.16959568    -0.05000
C2426       C  0.73724736  0.28334486  0.16086170    -0.23400
C2427       C  0.75147845  0.27780769  0.15239672     0.12900
C2428       C  0.75589388  0.26112741  0.15294344    -0.12600
N2429       N  0.72275110  0.24380355  0.18025682     0.64600
H2430       H  0.71696707  0.27576775  0.17629321     0.12400
N2431       N  0.76151129  0.28878386  0.14292184     0.61200
H2432       H  0.76674340  0.25706529  0.14628969     0.08600
O2433       O  0.79174022  0.21110935  0.19133723    -0.40200
O2434       O  0.80227759  0.20875304  0.16675369    -0.39400
O2435       O  0.72449423  0.23518457  0.13898441    -0.39400
O2436       O  0.71554612  0.21169373  0.14835733    -0.37100
O2437       O  0.77200505  0.29770454  0.15018458    -0.38000
O2438       O  0.76274157  0.28659912  0.12756714    -0.34200
O2439       O  0.72964526  0.23260221  0.18863525    -0.35600
O2440       O  0.70742008  0.24603393  0.18178203    -0.39900
C2441       C  0.82074298  0.40093513  0.33578655    -0.13600
C2442       C  0.80882206  0.41341127  0.33443547     0.16800
C2443       C  0.79191756  0.40918833  0.33547476     0.03100
C2444       C  0.78744689  0.39254484  0.33742747    -0.12100
C2445       C  0.79937288  0.37993158  0.33788680    -0.03100
C2446       C  0.81622428  0.38436695  0.33750760     0.02400
C2447       C  0.81434111  0.43039084  0.33031688     0.09200
N2448       N  0.77913451  0.42140823  0.33384886     0.65500
H2449       H  0.77447715  0.38939298  0.33777285     0.18500
N2450       N  0.82896198  0.37226046  0.33904369     0.76000
H2451       H  0.83371474  0.40407728  0.33516406     0.10000
C2452       C  0.81048360  0.44436778  0.34008529     0.03700
C2453       C  0.81343683  0.46024689  0.33362622    -0.05000
C2454       C  0.82046926  0.46233872  0.31795783    -0.23400
C2455       C  0.82586882  0.44834085  0.30910089     0.12900
C2456       C  0.82253653  0.43257480  0.31528595    -0.12600
N2457       N  0.80319449  0.44267113  0.35618059     0.64600
H2458       H  0.80951655  0.47102059  0.34049055     0.12400
N2459       N  0.83460759  0.44997123  0.29378007     0.61200
H2460       H  0.82593138  0.42185411  0.30805802     0.08600
O2461       O  0.83546483  0.36964157  0.35295122    -0.40200
O2462       O  0.83563434  0.36645222  0.32625762    -0.39400
O2463       O  0.77992623  0.43230126  0.32274262    -0.39400
O2464       O  0.76610266  0.42016798  0.34223924    -0.37100
O2465       O  0.84514962  0.46128202  0.29200877    -0.38000
O2466       O  0.83331843  0.43901585  0.28278251    -0.34200
O2467       O  0.80644780  0.43029341  0.36508447    -0.35600
O2468       O  0.79457866  0.45419825  0.36214220    -0.39900
C2469       C  0.82200882  0.32817846  0.40869801    -0.13600
C2470       C  0.81001544  0.32665148  0.42102713     0.16800
C2471       C  0.79317148  0.32814324  0.41671754     0.03100
C2472       C  0.78875082  0.33055343  0.40016380    -0.12100
C2473       C  0.80066564  0.33091547  0.38760533    -0.03100
C2474       C  0.81753690  0.33004570  0.39208954     0.02400
C2475       C  0.81512015  0.32219686  0.43806047     0.09200
N2476       N  0.78035096  0.32632553  0.42877587     0.65500
H2477       H  0.77577677  0.33120295  0.39703526     0.18500
N2478       N  0.83033085  0.33087236  0.38002130     0.76000
H2479       H  0.83494615  0.32722131  0.41192846     0.10000
C2480       C  0.82314615  0.30702803  0.44133959     0.03700
C2481       C  0.82497787  0.30174070  0.45768033    -0.05000
C2482       C  0.81877987  0.31110569  0.47079189    -0.23400
C2483       C  0.81206495  0.32683288  0.46766148     0.12900
C2484       C  0.81050284  0.33236986  0.45132749    -0.12600
N2485       N  0.82829274  0.29622005  0.42829976     0.64600
H2486       H  0.83004232  0.28958496  0.46008065     0.12400
N2487       N  0.80523519  0.33651198  0.48072374     0.61200
H2488       H  0.80450077  0.34408452  0.44892425     0.08600
O2489       O  0.83457323  0.31792341  0.37248739    -0.40200
O2490       O  0.83967345  0.34330785  0.37966514    -0.39400
O2491       O  0.76788537  0.33566446  0.42831558    -0.39400
O2492       O  0.78038716  0.31413662  0.43848464    -0.37100
O2493       O  0.81116131  0.35054196  0.48393773    -0.38000
O2494       O  0.79222280  0.33185548  0.48784169    -0.34200
O2495       O  0.84214846  0.28914799  0.42912649    -0.35600
O2496       O  0.81824953  0.29200219  0.41715929    -0.39900
C2497       C  0.75360038  0.26320578  0.35681506    -0.13600
C2498       C  0.76001090  0.25140973  0.34590173     0.16800
C2499       C  0.77203600  0.25629320  0.33424205     0.03100
C2500       C  0.77744672  0.27278831  0.33402551    -0.12100
C2501       C  0.77086531  0.28465272  0.34480908    -0.03100
C2502       C  0.75899107  0.27966597  0.35657276     0.02400
C2503       C  0.75397714  0.23408937  0.34715123     0.09200
N2504       N  0.77851809  0.24489539  0.32227759     0.65500
H2505       H  0.78638609  0.27654796  0.32486106     0.18500
N2506       N  0.75278970  0.29089643  0.36879132     0.76000
H2507       H  0.74462783  0.25942887  0.36594642     0.10000
C2508       C  0.76461494  0.22061995  0.35051888     0.03700
C2509       C  0.75820189  0.20447180  0.35039977    -0.05000
C2510       C  0.74135073  0.20137419  0.34748970    -0.23400
C2511       C  0.73074435  0.21502731  0.34484517     0.12900
C2512       C  0.73715179  0.23107674  0.34455229    -0.12600
N2513       N  0.78182925  0.22306596  0.35414443     0.64600
H2514       H  0.76650093  0.19424176  0.35270068     0.12400
N2515       N  0.71340329  0.21291634  0.34246907     0.61200
H2516       H  0.72888491  0.24133127  0.34216121     0.08600
O2517       O  0.76265303  0.29963508  0.37710213    -0.40200
O2518       O  0.73781227  0.29035418  0.37295668    -0.39400
O2519       O  0.76928910  0.23423703  0.31566036    -0.39400
O2520       O  0.79308178  0.24651680  0.31706193    -0.37100
O2521       O  0.70695202  0.21635954  0.32871288    -0.38000
O2522       O  0.70428005  0.20991965  0.35469128    -0.34200
O2523       O  0.78648832  0.23531686  0.36256124    -0.35600
O2524       O  0.79227955  0.21219327  0.35023591    -0.39900
C2525       C  0.77209838  0.32862497  0.26336163    -0.13600
C2526       C  0.75635388  0.33505337  0.26004968     0.16800
C2527       C  0.74643121  0.34023382  0.27341730     0.03100
C2528       C  0.75256919  0.33898644  0.28961517    -0.12100
C2529       C  0.76849330  0.33285492  0.29296866    -0.03100
C2530       C  0.77823761  0.32741317  0.27951753     0.02400
C2531       C  0.75024140  0.33522358  0.24264427     0.09200
N2532       N  0.73029458  0.34713930  0.27080091     0.65500
H2533       H  0.74490292  0.34328181  0.29964843     0.18500
N2534       N  0.79420052  0.32020162  0.28192412     0.76000
H2535       H  0.77959067  0.32412320  0.25327467     0.10000
C2536       C  0.75937257  0.34254979  0.22971365     0.03700
C2537       C  0.75365472  0.34122733  0.21337584    -0.05000
C2538       C  0.73886265  0.33302123  0.20949365    -0.23400
C2539       C  0.72980200  0.32565330  0.22249411     0.12900
C2540       C  0.73556568  0.32688302  0.23879343    -0.12600
N2541       N  0.77423362  0.35167799  0.23294064     0.64600
H2542       H  0.76065473  0.34709837  0.20365692     0.12400
N2543       N  0.71512193  0.31628374  0.21942350     0.61200
H2544       H  0.72875593  0.32080238  0.24852826     0.08600
O2545       O  0.80638958  0.32568639  0.27398496    -0.40200
O2546       O  0.79550595  0.30659556  0.28941405    -0.39400
O2547       O  0.71882400  0.34415147  0.28086283    -0.39400
O2548       O  0.72781629  0.35738613  0.25932125    -0.37100
O2549       O  0.71568335  0.30379285  0.21013678    -0.38000
O2550       O  0.70246404  0.31869695  0.22812716    -0.34200
O2551       O  0.78595759  0.35135089  0.22273259    -0.35600
O2552       O  0.77512079  0.36128267  0.24516585    -0.39900
C2553       C  0.69734735  0.04403194  0.33588088    -0.13600
C2554       C  0.69358005  0.05814778  0.32658387     0.16800
C2555       C  0.68528678  0.05644455  0.31144432     0.03100
C2556       C  0.68174177  0.04070495  0.30536730    -0.12100
C2557       C  0.68670309  0.02641495  0.31390853    -0.03100
C2558       C  0.69416025  0.02812281  0.32964448     0.02400
C2559       C  0.69984702  0.07448805  0.33175423     0.09200
N2560       N  0.68124399  0.07059740  0.30166110     0.65500
H2561       H  0.67593593  0.03964934  0.29336000     0.18500
N2562       N  0.69985251  0.01407265  0.33881117     0.76000
H2563       H  0.70379538  0.04536979  0.34752044     0.10000
C2564       C  0.69037979  0.08529134  0.34146164     0.03700
C2565       C  0.69598763  0.10141618  0.34436841    -0.05000
C2566       C  0.71097200  0.10694313  0.33767689    -0.23400
C2567       C  0.72066698  0.09591427  0.32825560     0.12900
C2568       C  0.71508080  0.07975686  0.32560421    -0.12600
N2569       N  0.67503497  0.08006179  0.34831699     0.64600
H2570       H  0.68854445  0.10970585  0.35174298     0.12400
N2571       N  0.73556592  0.10121094  0.32033991     0.61200
H2572       H  0.72224766  0.07148991  0.31793280     0.08600
O2573       O  0.69723724  0.01327961  0.35412847    -0.40200
O2574       O  0.70988832  0.00407806  0.33235046    -0.39400
O2575       O  0.69247258  0.07832005  0.29417912    -0.39400
O2576       O  0.66634324  0.07407461  0.29878919    -0.37100
O2577       O  0.74792159  0.09173309  0.31988534    -0.38000
O2578       O  0.73557710  0.11415483  0.31167201    -0.34200
O2579       O  0.67382211  0.07763150  0.36363528    -0.35600
O2580       O  0.66251830  0.07846721  0.33918797    -0.39900
C2581       C  0.66258420  0.94182273  0.31203381    -0.13600
C2582       C  0.67586214  0.93077429  0.31067357     0.16800
C2583       C  0.69216651  0.93695429  0.31069927     0.03100
C2584       C  0.69468007  0.95409401  0.31095756    -0.12100
C2585       C  0.68133615  0.96513485  0.31086260    -0.03100
C2586       C  0.66522276  0.95892847  0.31227692     0.02400
C2587       C  0.67238068  0.91324406  0.30686920     0.09200
N2588       N  0.70619100  0.92622084  0.30895183     0.65500
H2589       H  0.70707485  0.95884739  0.30944292     0.18500
N2590       N  0.65138857  0.96987309  0.31225637     0.76000
H2591       H  0.65007053  0.93715029  0.31203187     0.10000
C2592       C  0.67535694  0.90046947  0.31825625     0.03700
C2593       C  0.67342406  0.88394491  0.31334906    -0.05000
C2594       C  0.66842672  0.87985724  0.29718385    -0.23400
C2595       C  0.66541524  0.89289206  0.28585982     0.12900
C2596       C  0.66741137  0.90930286  0.29082511    -0.12600
N2597       N  0.68039136  0.90412475  0.33477390     0.64600
H2598       H  0.67585720  0.87428868  0.32227497     0.12400
N2599       N  0.66075753  0.88981272  0.26911964     0.61200
H2600       H  0.66539526  0.91910409  0.28193352     0.08600
O2601       O  0.64151846  0.97002023  0.30020476    -0.40200
O2602       O  0.64861310  0.97888792  0.32462879    -0.39400
O2603       O  0.70619375  0.91492095  0.29823677    -0.39400
O2604       O  0.71941286  0.92942991  0.31653965    -0.37100
O2605       O  0.64604252  0.88601535  0.26575959    -0.38000
O2606       O  0.67043920  0.89372502  0.25760527    -0.34200
O2607       O  0.67095787  0.91217190  0.34416652    -0.35600
O2608       O  0.69375139  0.89836667  0.34035386    -0.39900
C2609       C  0.81398786  0.04641031  0.18459193    -0.13600
C2610       C  0.80564554  0.05244750  0.17066141     0.16800
C2611       C  0.79849987  0.04121419  0.15940515     0.03100
C2612       C  0.79851184  0.02431481  0.16318991    -0.12100
C2613       C  0.80566603  0.01837947  0.17779446    -0.03100
C2614       C  0.81407007  0.02945238  0.18828667     0.02400
C2615       C  0.80155943  0.07027633  0.16983123     0.09200
N2616       N  0.79016878  0.04691492  0.14478598     0.65500
H2617       H  0.79187710  0.01583137  0.15526112     0.18500
N2618       N  0.82111143  0.02391740  0.20356192     0.76000
H2619       H  0.81938164  0.05503893  0.19326428     0.10000
C2620       C  0.78532023  0.07574169  0.17296551     0.03700
C2621       C  0.78135352  0.09242399  0.17074848    -0.05000
C2622       C  0.79328255  0.10397013  0.16589442    -0.23400
C2623       C  0.80959815  0.09849624  0.16278722     0.12900
C2624       C  0.81357347  0.08171025  0.16499718    -0.12600
N2625       N  0.77283141  0.06458095  0.17875513     0.64600
H2626       H  0.76892393  0.09651925  0.17343703     0.12400
N2627       N  0.82199062  0.10952208  0.15659114     0.61200
H2628       H  0.82593275  0.07741358  0.16230742     0.08600
O2629       O  0.81844484  0.03180243  0.21671230    -0.40200
O2630       O  0.83096979  0.01185332  0.20375994    -0.39400
O2631       O  0.79586907  0.05887778  0.13661603    -0.39400
O2632       O  0.77763896  0.03938405  0.13941466    -0.37100
O2633       O  0.83678743  0.10797512  0.16121406    -0.38000
O2634       O  0.81868057  0.11916705  0.14479758    -0.34200
O2635       O  0.77614302  0.05419398  0.18989495    -0.35600
O2636       O  0.75805125  0.06633252  0.17415032    -0.39900
C2637       C  0.81827014  0.93568779  0.21344423    -0.13600
C2638       C  0.83016886  0.93024641  0.20219363     0.16800
C2639       C  0.83422471  0.94037306  0.18857147     0.03100
C2640       C  0.82574558  0.95540747  0.18624044    -0.12100
C2641       C  0.81347506  0.96057333  0.19730322    -0.03100
C2642       C  0.81013362  0.95077945  0.21139585     0.02400
C2643       C  0.83681435  0.91325480  0.20441607     0.09200
N2644       N  0.84679161  0.93557212  0.17706241     0.65500
H2645       H  0.82846189  0.96291541  0.17553550     0.18500
N2646       N  0.79864073  0.95598848  0.22383513     0.76000
H2647       H  0.81517845  0.92799981  0.22392572     0.10000
C2648       C  0.84379236  0.90815168  0.21958980     0.03700
C2649       C  0.84602107  0.89122922  0.22267439    -0.05000
C2650       C  0.84168277  0.87917901  0.21093764    -0.23400
C2651       C  0.83588324  0.88451149  0.19533425     0.12900
C2652       C  0.83347053  0.90138322  0.19227474    -0.12600
N2653       N  0.84835596  0.91995201  0.23206249     0.64600
H2654       H  0.85098863  0.88748082  0.23450078     0.12400
N2655       N  0.83165307  0.87300313  0.18267072     0.61200
H2656       H  0.82803972  0.90515613  0.18064664     0.08600
O2657       O  0.78944849  0.94554750  0.23081269    -0.40200
O2658       O  0.79911071  0.97055991  0.22933271    -0.39400
O2659       O  0.84542645  0.93928356  0.16199842    -0.39400
O2660       O  0.85990430  0.92880199  0.18208883    -0.37100
O2661       O  0.81728716  0.86706247  0.18210688    -0.38000
O2662       O  0.84128618  0.87089068  0.17066064    -0.34200
O2663       O  0.84783679  0.91606347  0.24713262    -0.35600
O2664       O  0.85408094  0.93387093  0.22805597    -0.39900
C2665       C  0.73526344  0.00263336  0.21051253    -0.13600
C2666       C  0.73218957  0.99058295  0.22254894     0.16800
C2667       C  0.74192628  0.97611092  0.22283281     0.03100
C2668       C  0.75532685  0.97470782  0.21209504    -0.12100
C2669       C  0.75976030  0.98772964  0.20150052    -0.03100
C2670       C  0.74893653  0.00142642  0.20000027     0.02400
C2671       C  0.71955210  0.99377916  0.23536767     0.09200
N2672       N  0.73931310  0.96327559  0.23476754     0.65500
H2673       H  0.76306543  0.96401680  0.21319907     0.18500
N2674       N  0.75172373  0.01438456  0.18824948     0.76000
H2675       H  0.72737658  0.01326906  0.20973634     0.10000
C2676       C  0.72020913  0.00807184  0.24536192     0.03700
C2677       C  0.70950896  0.00951049  0.25879529    -0.05000
C2678       C  0.69864040  0.99669485  0.26297422    -0.23400
C2679       C  0.69694786  0.98311515  0.25211476     0.12900
C2680       C  0.70733835  0.98190087  0.23836829    -0.12600
N2681       N  0.73250535  0.02059175  0.24298100     0.64600
H2682       H  0.71089811  0.02000660  0.26688388     0.12400
N2683       N  0.68505470  0.97032492  0.25501554     0.61200
H2684       H  0.70632718  0.97132902  0.23033383     0.08600
O2685       O  0.74924215  0.02923684  0.19225337    -0.40200
O2686       O  0.75428460  0.01089882  0.17330123    -0.39400
O2687       O  0.74009997  0.94833565  0.23041768    -0.39400
O2688       O  0.73858594  0.96671928  0.24992964    -0.37100
O2689       O  0.68879917  0.95539964  0.25253646    -0.38000
O2690       O  0.67037917  0.97399620  0.25867018    -0.34200
O2691       O  0.72862514  0.03563568  0.24422570    -0.35600
O2692       O  0.74754762  0.01668756  0.24203190    -0.39900
C2693       C  0.71484339  0.32470876  0.08483039    -0.13600
C2694       C  0.69797341  0.32333418  0.08123877     0.16800
C2695       C  0.68644608  0.32449081  0.09424104     0.03100
C2696       C  0.69213419  0.32648362  0.11052542    -0.12100
C2697       C  0.70907509  0.32753793  0.11421360    -0.03100
C2698       C  0.72049197  0.32669637  0.10105430     0.02400
C2699       C  0.69296265  0.31860507  0.06420079     0.09200
N2700       N  0.66899488  0.32378400  0.09111765     0.65500
H2701       H  0.68318978  0.32738588  0.12037195     0.18500
N2702       N  0.73789908  0.32678781  0.10395065     0.76000
H2703       H  0.72378546  0.32340306  0.07501157     0.10000
C2704       C  0.69767490  0.32793208  0.05022577     0.03700
C2705       C  0.69477801  0.32157640  0.03433747    -0.05000
C2706       C  0.68738683  0.30609027  0.03211655    -0.23400
C2707       C  0.68203399  0.29712210  0.04605964     0.12900
C2708       C  0.68493665  0.30343793  0.06189763    -0.12600
N2709       N  0.70588825  0.34353534  0.05197277     0.64600
H2710       H  0.69911300  0.32836072  0.02368573     0.12400
N2711       N  0.67410217  0.28136628  0.04430778     0.61200
H2712       H  0.68137806  0.29619781  0.07254213     0.08600
O2713       O  0.74674301  0.33779961  0.09743678    -0.40200
O2714       O  0.74468793  0.31446106  0.11065702    -0.39400
O2715       O  0.65944469  0.31736453  0.10157842    -0.39400
O2716       O  0.66290603  0.33072588  0.07855419    -0.37100
O2717       O  0.67739681  0.26976276  0.05418446    -0.38000
O2718       O  0.66310353  0.27927716  0.03346448    -0.34200
O2719       O  0.71744373  0.34741137  0.04232016    -0.35600
O2720       O  0.70109886  0.35384474  0.06260655    -0.39900
C2721       C  0.66274727  0.30964015  0.94872543    -0.13600
C2722       C  0.67545276  0.30873724  0.93694161     0.16800
C2723       C  0.69201478  0.30837071  0.94244337     0.03100
C2724       C  0.69535136  0.30713976  0.95933262    -0.12100
C2725       C  0.68260486  0.30565977  0.97087722    -0.03100
C2726       C  0.66613539  0.30767394  0.96564168     0.02400
C2727       C  0.67131868  0.30619136  0.91919774     0.09200
N2728       N  0.70556486  0.30762984  0.93111775     0.65500
H2729       H  0.70802054  0.30566061  0.96332759     0.18500
N2730       N  0.65270174  0.30609822  0.97698809     0.76000
H2731       H  0.65003777  0.31027216  0.94463866     0.10000
C2732       C  0.66161296  0.29262003  0.91403540     0.03700
C2733       C  0.65965164  0.28941831  0.89715027    -0.05000
C2734       C  0.66756063  0.29904958  0.88511017    -0.23400
C2735       C  0.67667443  0.31300906  0.89031097     0.12900
C2736       C  0.67827584  0.31653367  0.90718180    -0.12600
N2737       N  0.65448315  0.28134030  0.92567712     0.64600
H2738       H  0.65250206  0.27874532  0.89348724     0.12400
N2739       N  0.68516143  0.32323160  0.87875590     0.61200
H2740       H  0.68560801  0.32704877  0.91095867     0.08600
O2741       O  0.65127883  0.29324680  0.98567846    -0.40200
O2742       O  0.64113290  0.31652978  0.97678920    -0.39400
O2743       O  0.71809594  0.31655336  0.93348931    -0.39400
O2744       O  0.70615193  0.29639466  0.92035298    -0.37100
O2745       O  0.67768516  0.33506177  0.87189334    -0.38000
O2746       O  0.70057362  0.32186428  0.87714114    -0.34200
O2747       O  0.64002088  0.27603365  0.92344149    -0.35600
O2748       O  0.66330660  0.27490126  0.93680574    -0.39900
C2749       C  0.81563766  0.17363136  0.06071103    -0.13600
C2750       C  0.80996859  0.15790039  0.06522769     0.16800
C2751       C  0.80640033  0.14622955  0.05272199     0.03100
C2752       C  0.80714668  0.15111784  0.03607939    -0.12100
C2753       C  0.81153922  0.16725861  0.03168405    -0.03100
C2754       C  0.81655108  0.17843894  0.04408519     0.02400
C2755       C  0.80530590  0.15502886  0.08278013     0.09200
N2756       N  0.80126796  0.12971592  0.05674908     0.65500
H2757       H  0.80312658  0.14265269  0.02655103     0.18500
N2758       N  0.82150943  0.19500830  0.03999614     0.76000
H2759       H  0.81844711  0.18254590  0.07025647     0.10000
C2760       C  0.81646264  0.15748263  0.09598957     0.03700
C2761       C  0.81060684  0.15689024  0.11232156    -0.05000
C2762       C  0.79389762  0.15376854  0.11589767    -0.23400
C2763       C  0.78291571  0.15110033  0.10256417     0.12900
C2764       C  0.78871022  0.15169659  0.08631735    -0.12600
N2765       N  0.83371912  0.16036336  0.09307966     0.64600
H2766       H  0.81928715  0.15867562  0.12232292     0.12400
N2767       N  0.76569283  0.14840092  0.10515848     0.61200
H2768       H  0.77997386  0.15020768  0.07629821     0.08600
O2769       O  0.82871534  0.19796779  0.02653303    -0.40200
O2770       O  0.81970816  0.20657236  0.05027186    -0.39400
O2771       O  0.79147305  0.12202458  0.04738802    -0.39400
O2772       O  0.80733941  0.12233516  0.06906862    -0.37100
O2773       O  0.75652315  0.16035598  0.10910532    -0.38000
O2774       O  0.75927115  0.13485965  0.10094287    -0.34200
O2775       O  0.84202049  0.16904260  0.10300279    -0.35600
O2776       O  0.84105099  0.15313276  0.08141472    -0.39900
C2777       C  0.81060102  0.17324613  0.94074855    -0.13600
C2778       C  0.82676565  0.17885952  0.93833226     0.16800
C2779       C  0.83704902  0.18145409  0.95224990     0.03100
C2780       C  0.83052117  0.17930925  0.96821809    -0.12100
C2781       C  0.81406533  0.17451190  0.97054139    -0.03100
C2782       C  0.80419623  0.17082517  0.95659909     0.02400
C2783       C  0.83170453  0.18366545  0.92127534     0.09200
N2784       N  0.85391632  0.18657977  0.95038744     0.65500
H2785       H  0.83807191  0.18215593  0.97887387     0.18500
N2786       N  0.78750971  0.16504663  0.95834702     0.76000
H2787       H  0.80271402  0.17118621  0.93015229     0.10000
C2788       C  0.82995354  0.17274390  0.90776611     0.03700
C2789       C  0.83182214  0.17880175  0.89161133    -0.05000
C2790       C  0.83567037  0.19546286  0.88848088    -0.23400
C2791       C  0.83803145  0.20611568  0.90211516     0.12900
C2792       C  0.83600616  0.20016475  0.91822502    -0.12600
N2793       N  0.82633703  0.15552578  0.91022400     0.64600
H2794       H  0.83035944  0.17032175  0.88140214     0.12400
N2795       N  0.84184826  0.22318875  0.89990095     0.61200
H2796       H  0.83710329  0.20871650  0.92843363     0.08600
O2797       O  0.77670699  0.16882191  0.94775277    -0.40200
O2798       O  0.78381045  0.15507365  0.96971896    -0.39400
O2799       O  0.86058526  0.19573949  0.96107826    -0.39400
O2800       O  0.86258525  0.18100492  0.93873606    -0.37100
O2801       O  0.83044330  0.23336733  0.89686951    -0.38000
O2802       O  0.85613907  0.22839219  0.90319075    -0.34200
O2803       O  0.81807407  0.14765119  0.89961956    -0.35600
O2804       O  0.83249081  0.14779316  0.92228542    -0.39900
C2805       C  0.72926413  0.24238345  0.98720433    -0.13600
C2806       C  0.72755603  0.23080838  0.99993393     0.16800
C2807       C  0.71567253  0.23346502  0.01239778     0.03100
C2808       C  0.70648577  0.24817995  0.01227820    -0.12100
C2809       C  0.70865366  0.26002992  0.99983023    -0.03100
C2810       C  0.72005229  0.25694782  0.98702803     0.02400
C2811       C  0.74023503  0.21770038  0.00125042     0.09200
N2812       N  0.71282926  0.22143201  0.02515219     0.65500
H2813       H  0.69749111  0.25035400  0.02186299     0.18500
N2814       N  0.72352493  0.26901628  0.97456128     0.76000
H2815       H  0.73866592  0.24063288  0.97792538     0.10000
C2816       C  0.74417808  0.20735812  0.98777681     0.03700
C2817       C  0.75854339  0.19771955  0.98849081    -0.05000
C2818       C  0.76882802  0.19787527  0.00246166    -0.23400
C2819       C  0.76434256  0.20759616  0.01617993     0.12900
C2820       C  0.75025880  0.21749311  0.01537704    -0.12600
N2821       N  0.73388643  0.20664659  0.97330576     0.64600
H2822       H  0.76166645  0.18999578  0.97809731     0.12400
N2823       N  0.77455212  0.20854377  0.03054836     0.61200
H2824       H  0.74755352  0.22563661  0.02557446     0.08600
O2825       O  0.72453686  0.26467240  0.95965039    -0.40200
O2826       O  0.72833541  0.28324682  0.97868004    -0.39400
O2827       O  0.70753033  0.22588777  0.03908557    -0.39400
O2828       O  0.71424810  0.20620654  0.02213562    -0.37100
O2829       O  0.78380239  0.22088336  0.03263122    -0.38000
O2830       O  0.77229771  0.19858488  0.04229729    -0.34200
O2831       O  0.74011841  0.20360108  0.95938049    -0.35600
O2832       O  0.71841092  0.20777127  0.97454124    -0.39900
loop_ 
_geom_bond_atom_site_label_1 
_geom_bond_atom_site_label_2 
_geom_bond_distance 
_geom_bond_site_symmetry_2 
_ccdc_geom_bond_type 
C1            N2   1.357       .  A
C1            N6   1.367   1_556  A
C1         C2781   1.482       .  S
N2            C3   1.352   1_556  A
C3            N4   1.351       .  A
C3         C2818   1.478       .  S
N4            C5   1.355       .  A
C5            N6   1.366       .  A
C5         C2753   1.473       .  S
C7            N8   1.354       .  A
C7           N12   1.364   1_556  A
C7         C2725   1.473       .  S
N8            C9   1.350   1_556  A
C9           N10   1.353       .  A
C9         C2809   1.476   1_554  S
N10          C11   1.359       .  A
C11          N12   1.367       .  A
C11        C2706   1.478       .  S
C13          N14   1.358       .  A
C13          N18   1.365       .  A
C13        C2641   1.484       .  S
N14          C15   1.355       .  A
C15          N16   1.352   1_565  A
C15        C2669   1.490       .  S
N16          C17   1.356       .  A
C17          N18   1.364   1_545  A
C17        C2613   1.473       .  S
C19          N20   1.367   1_545  A
C19          N24   1.359       .  A
C19        C2557   1.484       .  S
N20          C21   1.364       .  A
C21          N22   1.355       .  A
C21        C2585   1.472       .  S
N22          C23   1.352       .  A
C23          N24   1.354   1_565  A
C23        C2678   1.483       .  S
O25         Ni33   1.923       .  S
O25          C35   1.283       .  A
O26         Ni33   1.919       .  S
O26          C36   1.283       .  A
O27         Ni33   1.920       .  S
O27          C37   1.282       .  A
O28         Ni33   1.918       .  S
O28          C38   1.282       .  A
O29         Ni34   1.923       .  S
O29          C38   1.282       .  A
O30         Ni34   1.917       .  S
O30          C37   1.281       .  A
O31         Ni34   1.917       .  S
O31          C36   1.280       .  A
O32         Ni34   1.922       .  S
O32          C35   1.282       .  A
Ni33        Ni34   2.382       .  S
C35        C2529   1.498       .  S
C36        C2473   1.489       .  S
C37        C2445   1.489       .  S
C38        C2501   1.487       .  S
O39         Ni47   1.924       .  S
O39          C49   1.283       .  A
O40         Ni47   1.920       .  S
O40          C50   1.282       .  A
O41         Ni47   1.913       .  S
O41          C51   1.280       .  A
O42         Ni47   1.911       .  S
O42          C52   1.279       .  A
O43         Ni48   1.924       .  S
O43          C52   1.283       .  A
O44         Ni48   1.925       .  S
O44          C51   1.283       .  A
O45         Ni48   1.922       .  S
O45          C50   1.283       .  A
O46         Ni48   1.921       .  S
O46          C49   1.281       .  A
Ni47        Ni48   2.380       .  S
C49        C2538   1.495       .  S
C50        C2697   1.493       .  S
C51        C2389   1.493       .  S
C52        C2426   1.489       .  S
O53         Ni61   1.921       .  S
O53          C63   1.282       .  A
O54         Ni61   1.921       .  S
O54          C64   1.282       .  A
O55         Ni61   1.921       .  S
O55          C65   1.282       .  A
O56         Ni61   1.919       .  S
O56          C66   1.281       .  A
O57         Ni62   1.924       .  S
O57          C66   1.283       .  A
O58         Ni62   1.922       .  S
O58          C65   1.282       .  A
O59         Ni62   1.916       .  S
O59          C64   1.282       .  A
O60         Ni62   1.915       .  S
O60          C63   1.281       .  A
Ni61        Ni62   2.381       .  S
C63        C2417   1.491       .  S
C64        C2622   1.484       .  S
C65        C2762   1.496       .  S
C66        C2361   1.495       .  S
O67         Ni75   1.922       .  S
O67          C77   1.282       .  A
O68         Ni75   1.920       .  S
O68          C78   1.281       .  A
O69         Ni75   1.922       .  S
O69          C79   1.283       .  A
O70         Ni75   1.924       .  S
O70          C80   1.282       .  A
O71         Ni76   1.917       .  S
O71          C80   1.282       .  A
O72         Ni76   1.918       .  S
O72          C79   1.281       .  A
O73         Ni76   1.919       .  S
O73          C78   1.281       .  A
O74         Ni76   1.922       .  S
O74          C77   1.283       .  A
Ni75        Ni76   2.382       .  S
C77        C2510   1.496       .  S
C78        C2566   1.478       .  S
C79        C2342   1.492       .  S
C80        C2370   1.493       .  S
C81          N82   1.355       .  A
C81          N86   1.363       .  A
C81        C2277   1.468       .  S
N82          C83   1.352       .  A
C83          N84   1.352       .  A
C83        C2305   1.476       .  S
N84          C85   1.356       .  A
C85          N86   1.364       .  A
C85        C2482   1.470       .  S
C87          N88   1.353       .  A
C87          N92   1.362       .  A
C87        C2333   1.467       .  S
N88          C89   1.351       .  A
C89          N90   1.355       .  A
C89        C2314   1.489       .  S
N90          C91   1.358       .  A
C91          N92   1.364       .  A
C91        C2249   1.478       .  S
O93        Ni101   1.925       .  S
O93         C103   1.283       .  A
O94        Ni101   1.924       .  S
O94         C104   1.282       .  A
O95        Ni101   1.916       .  S
O95         C105   1.281       .  A
O96        Ni101   1.917       .  S
O96         C106   1.281       .  A
O97        Ni102   1.921       .  S
O97         C106   1.283       .  A
O98        Ni102   1.920       .  S
O98         C105   1.282       .  A
O99        Ni102   1.915       .  S
O99         C104   1.282       .  A
O100       Ni102   1.914       .  S
O100        C103   1.281       .  A
Ni101      Ni102   2.383       .  S
C103       C2193   1.483       .  S
C104       C2650   1.494       .  S
C105       C2165   1.486       .  S
C106       C2221   1.493       .  S
O107       Ni115   1.926       .  S
O107        C117   1.283       .  A
O108       Ni115   1.926       .  S
O108        C118   1.283       .  A
O109       Ni115   1.923       .  S
O109        C119   1.282       .  A
O110       Ni115   1.925       .  S
O110        C120   1.283       .  A
O111       Ni116   1.913       .  S
O111        C120   1.281       .  A
O112       Ni116   1.918       .  S
O112        C119   1.282       .  A
O113       Ni116   1.913       .  S
O113        C118   1.280       .  A
O114       Ni116   1.916       .  S
O114        C117   1.280       .  A
Ni115      Ni116   2.383       .  S
C117       C2137   1.478       .  S
C118       C2594   1.494       .  S
C119       C2109   1.488       .  S
C120       C2230   1.491       .  S
O121       Ni129   1.923       .  S
O121        C131   1.283       .  A
O122       Ni129   1.924       .  S
O122        C132   1.283       .  A
O123       Ni129   1.914       .  S
O123        C133   1.282       .  A
O124       Ni129   1.917       .  S
O124        C134   1.281       .  A
O125       Ni130   1.920       .  S
O125        C134   1.281       .  A
O126       Ni130   1.920       .  S
O126        C133   1.281       .  A
O127       Ni130   1.918       .  S
O127        C132   1.282       .  A
O128       Ni130   1.925       .  S
O128        C131   1.283       .  A
Ni129      Ni130   2.383       .  S
C131       C2081   1.498       .  S
C132       C2025   1.491       .  S
C133       C2053   1.492       .  S
C134       C2202   1.476       .  S
O135       Ni143   1.924       .  S
O135        C145   1.283       .  A
O136       Ni143   1.924       .  S
O136        C146   1.284       .  A
O137       Ni143   1.914       .  S
O137        C147   1.281       .  A
O138       Ni143   1.917       .  S
O138        C148   1.281       .  A
O139       Ni144   1.924       .  S
O139        C148   1.283       .  A
O140       Ni144   1.923       .  S
O140        C147   1.283       .  A
O141       Ni144   1.919       .  S
O141        C146   1.281       .  A
O142       Ni144   1.921       .  S
O142        C145   1.282       .  A
Ni143      Ni144   2.381       .  S
C145       C2090   1.496       .  S
C146       C1969   1.495       .  S
C147       C1997   1.489       .  S
C148       C2146   1.487       .  S
C149        N150   1.360       .  A
C149        N154   1.365       .  A
C149       C2454   1.478       .  S
N150        C151   1.354       .  A
C151        N152   1.351       .  A
C151       C1941   1.475       .  S
N152        C153   1.354       .  A
C153        N154   1.362       .  A
C153       C2062   1.470       .  S
C155        N156   1.366       .  A
C155        N160   1.358       .  A
C155       C2006   1.486       .  S
N156        C157   1.364       .  A
C157        N158   1.354       .  A
C157       C2398   1.468       .  S
N158        C159   1.350       .  A
C159        N160   1.352       .  A
C159       C1950   1.474       .  S
C161        N162   1.362   1_655  A
C161        N166   1.353       .  A
C161       C2174   1.472       .  S
N162        C163   1.366       .  A
C163        N164   1.360       .  A
C163       C1885   1.483       .  S
N164        C165   1.354       .  A
C165        N166   1.350   1_455  A
C165       C1913   1.477       .  S
C167        N168   1.363   1_455  A
C167        N172   1.352       .  A
C167       C1866   1.470       .  S
N168        C169   1.366       .  A
C169        N170   1.360       .  A
C169       C2034   1.483       .  S
N170        C171   1.356       .  A
C171        N172   1.351   1_655  A
C171       C1922   1.484       .  S
C173        N174   1.366       .  A
C173        N178   1.358       .  A
C173       C1801   1.482       .  S
N174        C175   1.364   1_556  A
C175        N176   1.355       .  A
C175       C1773   1.472       .  S
N176        C177   1.351   1_554  A
C177        N178   1.355       .  A
C177       C1829   1.490       .  S
C179        N180   1.368   1_556  A
C179        N184   1.354       .  A
C179       C1745   1.477       .  S
N180        C181   1.369       .  A
C181        N182   1.358       .  A
C181       C1717   1.483       .  S
N182        C183   1.352       .  A
C183        N184   1.351   1_554  A
C183       C1838   1.479       .  S
O185       Ni193   1.933       .  S
O185        C195   1.284       .  A
O186       Ni193   1.933       .  S
O186        C196   1.284       .  A
O187       Ni193   1.919       .  S
O187        C197   1.281       .  A
O188       Ni193   1.926       .  S
O188        C198   1.282       .  A
O189       Ni194   1.923       .  S
O189        C198   1.283       .  A
O190       Ni194   1.920       .  S
O190        C197   1.282       .  A
O191       Ni194   1.913       .  S
O191        C196   1.282       .  A
O192       Ni194   1.919       .  S
O192        C195   1.281       .  A
Ni193      Ni194   2.381       .  S
C195       C1661   1.492       .  S
C196       C1605   1.497       .  S
C197       C1633   1.491       .  S
C198       C1689   1.498       .  S
O199       Ni207   1.919       .  S
O199        C209   1.282       .  A
O200       Ni207   1.917       .  S
O200        C210   1.281       .  A
O201       Ni207   1.924       .  S
O201        C211   1.282       .  A
O202       Ni207   1.924       .  S
O202        C212   1.283       .  A
O203       Ni208   1.917       .  S
O203        C212   1.281       .  A
O204       Ni208   1.917       .  S
O204        C211   1.282       .  A
O205       Ni208   1.925       .  S
O205        C210   1.283       .  A
O206       Ni208   1.928       .  S
O206        C209   1.284       .  A
Ni207      Ni208   2.380       .  S
C209       C1698   1.499       .  S
C210       C1857   1.495       .  S
C211       C1549   1.495       .  S
C212       C1586   1.486       .  S
O213       Ni221   1.921       .  S
O213        C223   1.283       .  A
O214       Ni221   1.922       .  S
O214        C224   1.282       .  A
O215       Ni221   1.913       .  S
O215        C225   1.281       .  A
O216       Ni221   1.916       .  S
O216        C226   1.280       .  A
O217       Ni222   1.924       .  S
O217        C226   1.282       .  A
O218       Ni222   1.925       .  S
O218        C225   1.282       .  A
O219       Ni222   1.913       .  S
O219        C224   1.281       .  A
O220       Ni222   1.919       .  S
O220        C223   1.281       .  A
Ni221      Ni222   2.384       .  S
C223       C1530   1.493       .  S
C224       C1894   1.491       .  S
C225       C1782   1.484       .  S
C226       C1577   1.477       .  S
O227       Ni235   1.919       .  S
O227        C237   1.282       .  A
O228       Ni235   1.919       .  S
O228        C238   1.283       .  A
O229       Ni235   1.919       .  S
O229        C239   1.281       .  A
O230       Ni235   1.925       .  S
O230        C240   1.282       .  A
O231       Ni236   1.929       .  S
O231        C240   1.283       .  A
O232       Ni236   1.929       .  S
O232        C239   1.284       .  A
O233       Ni236   1.917       .  S
O233        C238   1.281       .  A
O234       Ni236   1.920       .  S
O234        C237   1.282       .  A
Ni235      Ni236   2.383       .  S
C237       C1521   1.486       .  S
C238       C1502   1.490       .  S
C239       C1726   1.495       .  S
C240       C1670   1.489       .  S
C241        N242   1.365       .  A
C241        N246   1.357       .  A
C241       C1642   1.479       .  S
N242        C243   1.365       .  A
C243        N244   1.355       .  A
C243       C2118   1.468       .  S
N244        C245   1.351       .  A
C245        N246   1.351       .  A
C245       C1465   1.473       .  S
C247        N248   1.364       .  A
C247        N252   1.356       .  A
C247       C1493   1.472       .  S
N248        C249   1.365       .  A
C249        N250   1.358       .  A
C249       C1978   1.482       .  S
N250        C251   1.352       .  A
C251        N252   1.352       .  A
C251       C1474   1.480       .  S
O253       Ni261   1.919       .  S
O253        C263   1.281       .  A
O254       Ni261   1.922       .  S
O254        C264   1.282       .  A
O255       Ni261   1.929       .  S
O255        C265   1.283       .  A
O256       Ni261   1.926       .  S
O256        C266   1.284       .  A
O257       Ni262   1.918       .  S
O257        C266   1.281       .  A
O258       Ni262   1.919       .  S
O258        C265   1.282       .  A
O259       Ni262   1.922       .  S
O259        C264   1.283       .  A
O260       Ni262   1.923       .  S
O260        C263   1.283       .  A
Ni261      Ni262   2.381       .  S
C263       C1409   1.493       .  S
C264       C1810   1.491       .  S
C265       C1381   1.497       .  S
C266       C1437   1.492       .  S
O267       Ni275   1.918       .  S
O267        C277   1.280       .  A
O268       Ni275   1.911       .  S
O268        C278   1.279       .  A
O269       Ni275   1.922       .  S
O269        C279   1.282       .  A
O270       Ni275   1.926       .  S
O270        C280   1.284       .  A
O271       Ni276   1.921       .  S
O271        C280   1.281       .  A
O272       Ni276   1.925       .  S
O272        C279   1.283       .  A
O273       Ni276   1.927       .  S
O273        C278   1.284       .  A
O274       Ni276   1.922       .  S
O274        C277   1.282       .  A
Ni275      Ni276   2.386       .  S
C277       C1353   1.476       .  S
C278       C1297   1.494       .  S
C279       C1325   1.484       .  S
C280       C1418   1.486       .  S
O281       Ni289   1.925       .  S
O281        C291   1.283       .  A
O282       Ni289   1.924       .  S
O282        C292   1.282       .  A
O283       Ni289   1.928       .  S
O283        C293   1.283       .  A
O284       Ni289   1.927       .  S
O284        C294   1.284       .  A
O285       Ni290   1.916       .  S
O285        C294   1.280       .  A
O286       Ni290   1.914       .  S
O286        C293   1.281       .  A
O287       Ni290   1.924       .  S
O287        C292   1.284       .  A
O288       Ni290   1.924       .  S
O288        C291   1.283       .  A
Ni289      Ni290   2.380       .  S
C291       C1269   1.499       .  S
C292       C1754   1.499       .  S
C293       C1241   1.487       .  S
C294       C1446   1.497       .  S
O295       Ni303   1.913       .  S
O295        C305   1.281       .  A
O296       Ni303   1.908       .  S
O296        C306   1.281       .  A
O297       Ni303   1.916       .  S
O297        C307   1.282       .  A
O298       Ni303   1.921       .  S
O298        C308   1.282       .  A
O299       Ni304   1.927       .  S
O299        C308   1.283       .  A
O300       Ni304   1.927       .  S
O300        C307   1.282       .  A
O301       Ni304   1.924       .  S
O301        C306   1.282       .  A
O302       Ni304   1.925       .  S
O302        C305   1.283       .  A
Ni303      Ni304   2.382       .  S
C305       C1362   1.493       .  S
C306       C1194   1.488       .  S
C307       C1213   1.493       .  S
C308       C1278   1.487       .  S
C309        N310   1.357       .  A
C309        N314   1.367       .  A
C309       C1334   1.475       .  S
N310        C311   1.353       .  A
C311        N312   1.351       .  A
C311       C1157   1.477       .  S
N312        C313   1.355       .  A
C313        N314   1.366       .  A
C313       C1614   1.476       .  S
C315        N316   1.365       .  A
C315        N320   1.358       .  A
C315       C1558   1.485       .  S
N316        C317   1.364       .  A
C317        N318   1.354       .  A
C317       C1222   1.469       .  S
N318        C319   1.353       .  A
C319        N320   1.354       .  A
C319       C1166   1.491       .  S
O321       Ni329   1.934       .  S
O321        C331   1.285       .  A
O322       Ni329   1.934       .  S
O322        C332   1.284       .  A
O323       Ni329   1.920       .  S
O323        C333   1.282       .  A
O324       Ni329   1.918       .  S
O324        C334   1.281       .  A
O325       Ni330   1.925       .  S
O325        C334   1.283       .  A
O326       Ni330   1.924       .  S
O326        C333   1.283       .  A
O327       Ni330   1.913       .  S
O327        C332   1.282       .  A
O328       Ni330   1.916       .  S
O328        C331   1.281       .  A
Ni329      Ni330   2.380       .  S
C331       C1101   1.498       .  S
C332       C1073   1.500       .  S
C333       C2790   1.496       .  S
C334       C1129   1.489       .  S
O335       Ni343   1.914       .  S
O335        C345   1.281       .  A
O336       Ni343   1.917       .  S
O336        C346   1.282       .  A
O337       Ni343   1.915       .  S
O337        C347   1.281       .  A
O338       Ni343   1.918       .  S
O338        C348   1.281       .  A
O339       Ni344   1.935       .  S
O339        C348   1.286       .  A
O340       Ni344   1.930       .  S
O340        C347   1.284       .  A
O341       Ni344   1.923       .  S
O341        C346   1.281       .  A
O342       Ni344   1.922       .  S
O342        C345   1.282       .  A
Ni343      Ni344   2.380       .  S
C345       C1045   1.492       .  S
C346       C2734   1.493       .  S
C347       C1026   1.494       .  S
C348       C1110   1.502       .  S
O349       Ni357   1.918       .  S
O349        C359   1.281       .  A
O350       Ni357   1.915       .  S
O350        C360   1.280       .  A
O351       Ni357   1.921       .  S
O351        C361   1.281       .  A
O352       Ni357   1.924       .  S
O352        C362   1.282       .  A
O353       Ni358   1.917       .  S
O353        C362   1.282       .  A
O354       Ni358   1.917       .  S
O354        C361   1.282       .  A
O355       Ni358   1.922       .  S
O355        C360   1.283       .  A
O356       Ni358   1.925       .  S
O356        C359   1.283       .  A
Ni357      Ni358   2.380       .  S
C359       C1138   1.495       .  S
C360       C2286   1.492       .  S
C361        C961   1.490       .  S
C362        C989   1.495       .  S
O363       Ni371   1.927       .  S
O363        C373   1.283       .  A
O364       Ni371   1.925       .  S
O364        C374   1.284       .  A
O365       Ni371   1.916       .  S
O365        C375   1.282       .  A
O366       Ni371   1.916       .  S
O366        C376   1.281       .  A
O367       Ni372   1.926       .  S
O367        C376   1.283       .  A
O368       Ni372   1.928       .  S
O368        C375   1.283       .  A
O369       Ni372   1.911       .  S
O369        C374   1.279       .  A
O370       Ni372   1.910       .  S
O370        C373   1.281       .  A
Ni371      Ni372   2.381       .  S
C373       C1054   1.492       .  S
C374       C2258   1.493       .  S
C375        C933   1.494       .  S
C376        C998   1.485       .  S
C377        N378   1.366       .  A
C377        N382   1.356       .  A
C377        C877   1.475       .  S
N378        C379   1.368       .  A
C379        N380   1.359       .  A
C379       C1017   1.488       .  S
N380        C381   1.355       .  A
C381        N382   1.353       .  A
C381        C905   1.487       .  S
C383        N384   1.367       .  A
C383        N388   1.360       .  A
C383        C858   1.487       .  S
N384        C385   1.364       .  A
C385        N386   1.353       .  A
C385        C942   1.472       .  S
N386        C387   1.352       .  A
C387        N388   1.355       .  A
C387        C914   1.486       .  S
C389        N390   1.367       .  A
C389        N394   1.357       .  A
C389       C1390   1.480       .  S
N390        C391   1.367   1_565  A
C391        N392   1.356       .  A
C391        C793   1.476       .  S
N392        C393   1.352   1_545  A
C393        N394   1.353       .  A
C393        C821   1.476       .  S
C395        N396   1.364   1_545  A
C395        N400   1.357       .  A
C395        C765   1.473       .  S
N396        C397   1.363       .  A
C397        N398   1.356       .  A
C397       C1306   1.471       .  S
N398        C399   1.353       .  A
C399        N400   1.353   1_565  A
C399        C830   1.485       .  S
C401        N402   1.357       .  A
C401        N406   1.368       .  A
C401        C709   1.485       .  S
N402        C403   1.351       .  A
C403        N404   1.353   1_455  A
C403        C737   1.490       .  S
N404        C405   1.357       .  A
C405        N406   1.367   1_655  A
C405       C1082   1.480       .  S
C407        N408   1.357       .  A
C407        N412   1.365       .  A
C407        C970   1.487       .  S
N408        C409   1.351       .  A
C409        N410   1.352   1_655  A
C409        C746   1.479       .  S
N410        C411   1.357       .  A
C411        N412   1.365   1_455  A
C411        C681   1.475       .  S
O413       Ni421   1.925       .  S
O413        C423   1.283       .  A
O414       Ni421   1.928       .  S
O414        C424   1.283       .  A
O415       Ni421   1.926       .  S
O415        C425   1.283       .  A
O416       Ni421   1.923       .  S
O416        C426   1.282       .  A
O417       Ni422   1.911       .  S
O417        C426   1.281       .  A
O418       Ni422   1.914       .  S
O418        C425   1.281       .  A
O419       Ni422   1.917       .  S
O419        C424   1.282       .  A
O420       Ni422   1.921       .  S
O420        C423   1.282       .  A
Ni421      Ni422   2.382       .  S
C423        C634   1.495       .  S
C424        C886   1.492       .  S
C425        C597   1.489       .  S
C426        C653   1.490       .  S
O427       Ni435   1.918       .  S
O427        C437   1.282       .  A
O428       Ni435   1.920       .  S
O428        C438   1.281       .  A
O429       Ni435   1.920       .  S
O429        C439   1.282       .  A
O430       Ni435   1.921       .  S
O430        C440   1.282       .  A
O431       Ni436   1.925       .  S
O431        C440   1.283       .  A
O432       Ni436   1.925       .  S
O432        C439   1.283       .  A
O433       Ni436   1.925       .  S
O433        C438   1.283       .  A
O434       Ni436   1.925       .  S
O434        C437   1.283       .  A
Ni435      Ni436   2.382       .  S
C437        C569   1.495       .  S
C438        C802   1.497       .  S
C439        C718   1.491       .  S
C440        C541   1.485       .  S
O441       Ni449   1.921       .  S
O441        C451   1.282       .  A
O442       Ni449   1.919       .  S
O442        C452   1.282       .  A
O443       Ni449   1.921       .  S
O443        C453   1.282       .  A
O444       Ni449   1.920       .  S
O444        C454   1.282       .  A
O445       Ni450   1.925       .  S
O445        C454   1.283       .  A
O446       Ni450   1.922       .  S
O446        C453   1.283       .  A
O447       Ni450   1.918       .  S
O447        C452   1.282       .  A
O448       Ni450   1.919       .  S
O448        C451   1.282       .  A
Ni449      Ni450   2.382       .  S
C451        C578   1.490       .  S
C452        C513   1.486       .  S
C453        C690   1.495       .  S
C454        C625   1.493       .  S
O455       Ni463   1.922       .  S
O455        C465   1.282       .  A
O456       Ni463   1.922       .  S
O456        C466   1.283       .  A
O457       Ni463   1.921       .  S
O457        C467   1.282       .  A
O458       Ni463   1.921       .  S
O458        C468   1.282       .  A
O459       Ni464   1.913       .  S
O459        C468   1.281       .  A
O460       Ni464   1.914       .  S
O460        C467   1.281       .  A
O461       Ni464   1.921       .  S
O461        C466   1.282       .  A
O462       Ni464   1.923       .  S
O462        C465   1.282       .  A
Ni463      Ni464   2.385       .  S
C465        C550   1.484       .  S
C466        C849   1.493       .  S
C467        C774   1.486       .  S
C468        C662   1.484       .  S
C469        N470   1.354       .  A
C469        N474   1.365       .  A
C469        C606   1.473       .  S
N470        C471   1.352       .  A
C471        N472   1.353       .  A
C471        C485   1.486       .  S
N472        C473   1.358       .  A
C473        N474   1.366       .  A
C473       C1250   1.478       .  S
C475        N476   1.355       .  A
C475        N480   1.362       .  A
C475       C1185   1.471       .  S
N476        C477   1.352       .  A
C477        N478   1.355       .  A
C477        C494   1.490       .  S
N478        C479   1.358       .  A
C479        N480   1.364       .  A
C479        C522   1.476       .  S
C481        C482   1.400       .  A
C481        C486   1.396       .  A
C481        H491   1.085       .  S
C482        C487   1.476       .  S
C482        C483   1.411       .  A
C483        C484   1.404       .  A
C483        N488   1.441       .  S
C484        C485   1.410       .  A
C484        H489   1.083       .  S
C485        C486   1.416       .  A
C486        N490   1.432       .  S
C487        C492   1.412       .  A
C487        C496   1.399       .  A
N488        O503   1.263       .  A
N488        O504   1.263       .  A
N490        O501   1.262       .  A
N490        O502   1.262       .  A
C492        C493   1.401       .  A
C492        N497   1.438       .  S
C493        C494   1.408       .  A
C493        H498   1.083       .  S
C494        C495   1.418       .  A
C495        C496   1.400       .  A
C495        N499   1.434       .  S
C496        H500   1.084       .  S
N497        O507   1.262       .  A
N497        O508   1.263       .  A
N499        O505   1.262       .  A
N499        O506   1.262       .  A
C509        C510   1.401       .  A
C509        C514   1.404       .  A
C509        H519   1.084       .  S
C510        C515   1.481       .  S
C510        C511   1.414       .  A
C511        C512   1.404       .  A
C511        N516   1.440       .  S
C512        C513   1.406       .  A
C512        H517   1.083       .  S
C513        C514   1.417       .  A
C514        N518   1.437       .  S
C515        C520   1.414       .  A
C515        C524   1.399       .  A
N516        O531   1.263       .  A
N516        O532   1.263       .  A
N518        O529   1.262       .  A
N518        O530   1.263       .  A
C520        C521   1.407       .  A
C520        N525   1.437       .  S
C521        C522   1.403       .  A
C521        H526   1.084       .  S
C522        C523   1.416       .  A
C523        C524   1.400       .  A
C523        N527   1.439       .  S
C524        H528   1.084       .  S
N525        O535   1.262       .  A
N525        O536   1.263       .  A
N527        O533   1.263       .  A
N527        O534   1.263       .  A
C537        C538   1.407       .  A
C537        C542   1.406       .  A
C537        H547   1.083       .  S
C538        C543   1.497       .  S
C538        C539   1.418       .  A
C539        C540   1.407       .  A
C539        N544   1.439       .  S
C540        C541   1.404       .  A
C540        H545   1.083       .  S
C541        C542   1.414       .  A
C542        N546   1.438       .  S
C543        C548   1.418       .  A
C543        C552   1.407       .  A
N544        O559   1.263       .  A
N544        O560   1.263       .  A
N546        O557   1.263       .  A
N546        O558   1.263       .  A
C548        C549   1.406       .  A
C548        N553   1.438       .  S
C549        C550   1.404       .  A
C549        H554   1.083       .  S
C550        C551   1.414       .  A
C551        C552   1.407       .  A
C551        N555   1.438       .  S
C552        H556   1.083       .  S
N553        O563   1.263       .  A
N553        O564   1.263       .  A
N555        O561   1.263       .  A
N555        O562   1.263       .  A
C565        C566   1.402       .  A
C565        C570   1.406       .  A
C565        H575   1.084       .  S
C566        C571   1.484       .  S
C566        C567   1.409       .  A
C567        C568   1.404       .  A
C567        N572   1.436       .  S
C568        C569   1.410       .  A
C568        H573   1.083       .  S
C569        C570   1.420       .  A
C570        N574   1.435       .  S
C571        C576   1.408       .  A
C571        C580   1.401       .  A
N572        O587   1.262       .  A
N572        O588   1.263       .  A
N574        O585   1.262       .  A
N574        O586   1.263       .  A
C576        C577   1.404       .  A
C576        N581   1.432       .  S
C577        C578   1.409       .  A
C577        H582   1.083       .  S
C578        C579   1.419       .  A
C579        C580   1.404       .  A
C579        N583   1.436       .  S
C580        H584   1.084       .  S
N581        O591   1.262       .  A
N581        O592   1.262       .  A
N583        O589   1.263       .  A
N583        O590   1.262       .  A
C593        C594   1.405       .  A
C593        C598   1.400       .  A
C593        H603   1.084       .  S
C594        C599   1.493       .  S
C594        C595   1.415       .  A
C595        C596   1.410       .  A
C595        N600   1.439       .  S
C596        C597   1.408       .  A
C596        H601   1.083       .  S
C597        C598   1.416       .  A
C598        N602   1.436       .  S
C599        C604   1.416       .  A
C599        C608   1.407       .  A
N600        O615   1.263       .  A
N600        O616   1.263       .  A
N602        O613   1.263       .  A
N602        O614   1.263       .  A
C604        C605   1.403       .  A
C604        N609   1.440       .  S
C605        C606   1.401       .  A
C605        H610   1.084       .  S
C606        C607   1.410       .  A
C607        C608   1.405       .  A
C607        N611   1.432       .  S
C608        H612   1.083       .  S
N609        O619   1.263       .  A
N609        O620   1.263       .  A
N611        O617   1.262       .  A
N611        O618   1.262       .  A
C621        C622   1.401       .  A
C621        C626   1.405       .  A
C621        H631   1.084       .  S
C622        C627   1.487       .  S
C622        C623   1.414       .  A
C623        C624   1.407       .  A
C623        N628   1.439       .  S
C624        C625   1.408       .  A
C624        H629   1.083       .  S
C625        C626   1.419       .  A
C626        N630   1.435       .  S
C627        C632   1.413       .  A
C627        C636   1.401       .  A
N628        O643   1.263       .  A
N628        O644   1.263       .  A
N630        O641   1.263       .  A
N630        O642   1.262       .  A
C632        C633   1.407       .  A
C632        N637   1.439       .  S
C633        C634   1.409       .  A
C633        H638   1.083       .  S
C634        C635   1.419       .  A
C635        C636   1.405       .  A
C635        N639   1.435       .  S
C636        H640   1.084       .  S
N637        O647   1.263       .  A
N637        O648   1.263       .  A
N639        O645   1.262       .  A
N639        O646   1.263       .  A
C649        C650   1.404       .  A
C649        C654   1.402       .  A
C649        H659   1.083       .  S
C650        C655   1.486       .  S
C650        C651   1.413       .  A
C651        C652   1.403       .  A
C651        N656   1.438       .  S
C652        C653   1.408       .  A
C652        H657   1.083       .  S
C653        C654   1.415       .  A
C654        N658   1.430       .  S
C655        C660   1.414       .  A
C655        C664   1.404       .  A
N656        O671   1.263       .  A
N656        O672   1.263       .  A
N658        O669   1.262       .  A
N658        O670   1.262       .  A
C660        C661   1.403       .  A
C660        N665   1.438       .  S
C661        C662   1.406       .  A
C661        H666   1.083       .  S
C662        C663   1.416       .  A
C663        C664   1.403       .  A
C663        N667   1.436       .  S
C664        H668   1.083       .  S
N665        O675   1.263       .  A
N665        O676   1.263       .  A
N667        O673   1.263       .  A
N667        O674   1.263       .  A
C677        C678   1.406       .  A
C677        C682   1.406       .  A
C677        H687   1.084       .  S
C678        C683   1.486       .  S
C678        C679   1.415       .  A
C679        C680   1.402       .  A
C679        N684   1.439       .  S
C680        C681   1.402       .  A
C680        H685   1.084       .  S
C681        C682   1.408       .  A
C682        N686   1.431       .  S
C683        C688   1.415       .  A
C683        C692   1.401       .  A
N684        O699   1.263       .  A
N684        O700   1.262       .  A
N686        O697   1.262       .  A
N686        O698   1.262       .  A
C688        C689   1.408       .  A
C688        N693   1.441       .  S
C689        C690   1.409       .  A
C689        H694   1.083       .  S
C690        C691   1.416       .  A
C691        C692   1.400       .  A
C691        N695   1.429       .  S
C692        H696   1.084       .  S
N693        O703   1.263       .  A
N693        O704   1.263       .  A
N695        O701   1.262       .  A
N695        O702   1.262       .  A
C705        C706   1.406       .  A
C705        C710   1.407       .  A
C705        H715   1.084       .  S
C706        C711   1.487       .  S
C706        C707   1.414       .  A
C707        C708   1.403       .  A
C707        N712   1.439       .  S
C708        C709   1.406       .  A
C708        H713   1.084       .  S
C709        C710   1.412       .  A
C710        N714   1.432       .  S
C711        C716   1.412       .  A
C711        C720   1.402       .  A
N712        O727   1.262       .  A
N712        O728   1.263       .  A
N714        O725   1.262       .  A
N714        O726   1.262       .  A
C716        C717   1.408       .  A
C716        N721   1.437       .  S
C717        C718   1.408       .  A
C717        H722   1.083       .  S
C718        C719   1.418       .  A
C719        C720   1.404       .  A
C719        N723   1.436       .  S
C720        H724   1.084       .  S
N721        O731   1.263       .  A
N721        O732   1.262       .  A
N723        O729   1.262       .  A
N723        O730   1.263       .  A
C733        C734   1.403       .  A
C733        C738   1.398       .  A
C733        H743   1.082       .  S
C734        C739   1.486   1_455  S
C734        C735   1.414   1_455  A
C735        C736   1.404       .  A
C735        N740   1.440       .  S
C736        C737   1.408   1_655  A
C736        H741   1.082       .  S
C737        C738   1.417       .  A
C738        N742   1.432       .  S
C739        C744   1.416   1_655  A
C739        C748   1.404       .  A
N740        O755   1.263       .  A
N740        O756   1.263       .  A
N742        O753   1.262       .  A
N742        O754   1.262       .  A
C744        C745   1.405       .  A
C744        N749   1.440       .  S
C745        C746   1.405   1_455  A
C745        H750   1.082       .  S
C746        C747   1.413       .  A
C747        C748   1.397       .  A
C747        N751   1.434       .  S
C748        H752   1.082       .  S
N749        O759   1.263       .  A
N749        O760   1.263       .  A
N751        O757   1.262       .  A
N751        O758   1.262       .  A
C761        C762   1.406       .  A
C761        C766   1.402       .  A
C761        H771   1.084       .  S
C762        C767   1.483       .  S
C762        C763   1.411       .  A
C763        C764   1.401       .  A
C763        N768   1.434       .  S
C764        C765   1.403       .  A
C764        H769   1.084       .  S
C765        C766   1.407       .  A
C766        N770   1.429       .  S
C767        C772   1.413       .  A
C767        C776   1.403       .  A
N768        O783   1.262       .  A
N768        O784   1.262       .  A
N770        O781   1.262       .  A
N770        O782   1.262       .  A
C772        C773   1.400       .  A
C772        N777   1.438       .  S
C773        C774   1.405       .  A
C773        H778   1.083       .  S
C774        C775   1.418       .  A
C775        C776   1.407       .  A
C775        N779   1.437       .  S
C776        H780   1.083       .  S
N777        O787   1.262       .  A
N777        O788   1.263       .  A
N779        O785   1.263       .  A
N779        O786   1.263       .  A
C789        C790   1.403       .  A
C789        C794   1.404       .  A
C789        H799   1.083       .  S
C790        C795   1.492       .  S
C790        C791   1.416       .  A
C791        C792   1.409       .  A
C791        N796   1.437       .  S
C792        C793   1.402       .  A
C792        H797   1.083       .  S
C793        C794   1.413       .  A
C794        N798   1.439       .  S
C795        C800   1.414       .  A
C795        C804   1.402       .  A
N796        O811   1.263       .  A
N796        O812   1.263       .  A
N798        O809   1.263       .  A
N798        O810   1.263       .  A
C800        C801   1.409       .  A
C800        N805   1.439       .  S
C801        C802   1.410       .  A
C801        H806   1.083       .  S
C802        C803   1.419       .  A
C803        C804   1.402       .  A
C803        N807   1.432       .  S
C804        H808   1.084       .  S
N805        O815   1.263       .  A
N805        O816   1.263       .  A
N807        O813   1.262       .  A
N807        O814   1.262       .  A
C817        C818   1.405       .  A
C817        C822   1.401       .  A
C817        H827   1.083       .  S
C818        C823   1.486       .  S
C818        C819   1.416   1_565  A
C819        C820   1.401       .  A
C819        N824   1.438       .  S
C820        C821   1.403   1_545  A
C820        H825   1.083       .  S
C821        C822   1.413       .  A
C822        N826   1.437       .  S
C823        C828   1.415       .  A
C823        C832   1.404   1_565  A
N824        O839   1.263       .  A
N824        O840   1.263       .  A
N826        O837   1.263       .  A
N826        O838   1.263       .  A
C828        C829   1.400       .  A
C828        N833   1.437       .  S
C829        C830   1.406       .  A
C829        H834   1.083       .  S
C830        C831   1.415   1_565  A
C831        C832   1.400       .  A
C831        N835   1.432       .  S
C832        H836   1.083       .  S
N833        O843   1.263       .  A
N833        O844   1.263       .  A
N835        O841   1.262       .  A
N835        O842   1.262       .  A
C845        C846   1.402       .  A
C845        C850   1.403       .  A
C845        H855   1.084       .  S
C846        C851   1.489       .  S
C846        C847   1.415       .  A
C847        C848   1.409       .  A
C847        N852   1.441       .  S
C848        C849   1.409       .  A
C848        H853   1.083       .  S
C849        C850   1.417       .  A
C850        N854   1.434       .  S
C851        C856   1.414       .  A
C851        C860   1.406       .  A
N852        O867   1.263       .  A
N852        O868   1.263       .  A
N854        O865   1.263       .  A
N854        O866   1.262       .  A
C856        C857   1.402       .  A
C856        N861   1.438       .  S
C857        C858   1.406       .  A
C857        H862   1.084       .  S
C858        C859   1.415       .  A
C859        C860   1.408       .  A
C859        N863   1.433       .  S
C860        H864   1.084       .  S
N861        O871   1.262       .  A
N861        O872   1.263       .  A
N863        O869   1.262       .  A
N863        O870   1.262       .  A
C873        C874   1.402       .  A
C873        C878   1.400       .  A
C873        H883   1.084       .  S
C874        C879   1.486       .  S
C874        C875   1.417       .  A
C875        C876   1.410       .  A
C875        N880   1.438       .  S
C876        C877   1.404       .  A
C876        H881   1.084       .  S
C877        C878   1.407       .  A
C878        N882   1.429       .  S
C879        C884   1.410       .  A
C879        C888   1.400       .  A
N880        O895   1.262       .  A
N880        O896   1.262       .  A
N882        O893   1.262       .  A
N882        O894   1.262       .  A
C884        C885   1.409       .  A
C884        N889   1.433       .  S
C885        C886   1.410       .  A
C885        H890   1.083       .  S
C886        C887   1.418       .  A
C887        C888   1.401       .  A
C887        N891   1.436       .  S
C888        H892   1.084       .  S
N889        O899   1.262       .  A
N889        O900   1.262       .  A
N891        O897   1.262       .  A
N891        O898   1.263       .  A
C901        C902   1.404       .  A
C901        C906   1.406       .  A
C901        H911   1.059       .  S
C902        C907   1.481       .  S
C902        C903   1.412       .  A
C903        C904   1.402       .  A
C903        N908   1.438       .  S
C904        C905   1.408       .  A
C904        H909   1.052       .  S
C905        C906   1.416       .  A
C906        N910   1.435       .  S
C907        C912   1.413       .  A
C907        C916   1.401       .  A
N908        O923   1.262       .  A
N908        O924   1.263       .  A
N910        O921   1.262       .  A
N910        O922   1.262       .  A
C912        C913   1.402       .  A
C912        N917   1.438       .  S
C913        C914   1.407       .  A
C913        H918   1.078       .  S
C914        C915   1.418       .  A
C915        C916   1.402       .  A
C915        N919   1.438       .  S
C916        H920   1.076       .  S
N917        O927   1.263       .  A
N917        O928   1.262       .  A
N919        O925   1.263       .  A
N919        O926   1.263       .  A
C929        C930   1.404       .  A
C929        C934   1.406       .  A
C929        H939   1.084       .  S
C930        C935   1.493       .  S
C930        C931   1.417       .  A
C931        C932   1.403       .  A
C931        N936   1.439       .  S
C932        C933   1.406       .  A
C932        H937   1.083       .  S
C933        C934   1.416       .  A
C934        N938   1.429       .  S
C935        C940   1.418       .  A
C935        C944   1.405       .  A
N936        O951   1.262       .  A
N936        O952   1.263       .  A
N938        O949   1.262       .  A
N938        O950   1.262       .  A
C940        C941   1.407       .  A
C940        N945   1.441       .  S
C941        C942   1.401       .  A
C941        H946   1.084       .  S
C942        C943   1.413       .  A
C943        C944   1.405       .  A
C943        N947   1.436       .  S
C944        H948   1.084       .  S
N945        O955   1.263       .  A
N945        O956   1.263       .  A
N947        O953   1.262       .  A
N947        O954   1.262       .  A
C957        C958   1.402       .  A
C957        C962   1.404       .  A
C957        H967   1.084       .  S
C958        C963   1.483       .  S
C958        C959   1.412       .  A
C959        C960   1.405       .  A
C959        N964   1.440       .  S
C960        C961   1.408       .  A
C960        H965   1.083       .  S
C961        C962   1.418       .  A
C962        N966   1.434       .  S
C963        C968   1.412       .  A
C963        C972   1.404       .  A
N964        O979   1.263       .  A
N964        O980   1.263       .  A
N966        O977   1.263       .  A
N966        O978   1.262       .  A
C968        C969   1.399       .  A
C968        N973   1.439       .  S
C969        C970   1.406       .  A
C969        H974   1.084       .  S
C970        C971   1.414       .  A
C971        C972   1.408       .  A
C971        N975   1.432       .  S
C972        H976   1.084       .  S
N973        O983   1.263       .  A
N973        O984   1.262       .  A
N975        O981   1.262       .  A
N975        O982   1.262       .  A
C985        C986   1.402       .  A
C985        C990   1.403       .  A
C985        H995   1.084       .  S
C986        C991   1.486       .  S
C986        C987   1.414       .  A
C987        C988   1.405       .  A
C987        N992   1.440       .  S
C988        C989   1.409       .  A
C988        H993   1.083       .  S
C989        C990   1.417       .  A
C990        N994   1.430       .  S
C991        C996   1.414       .  A
C991       C1000   1.403       .  A
N992       O1007   1.263       .  A
N992       O1008   1.263       .  A
N994       O1005   1.262       .  A
N994       O1006   1.262       .  A
C996        C997   1.405       .  A
C996       N1001   1.440       .  S
C997        C998   1.406       .  A
C997       H1002   1.084       .  S
C998        C999   1.416       .  A
C999       C1000   1.406       .  A
C999       N1003   1.438       .  S
C1000      H1004   1.084       .  S
N1001      O1011   1.263       .  A
N1001      O1012   1.263       .  A
N1003      O1009   1.262       .  A
N1003      O1010   1.263       .  A
C1013      C1014   1.400       .  A
C1013      C1018   1.401       .  A
C1013      H1023   1.084       .  S
C1014      C1019   1.489       .  S
C1014      C1015   1.412       .  A
C1015      C1016   1.410       .  A
C1015      N1020   1.431       .  S
C1016      C1017   1.406       .  A
C1016      H1021   1.083       .  S
C1017      C1018   1.419       .  A
C1018      N1022   1.439       .  S
C1019      C1024   1.414       .  A
C1019      C1028   1.403       .  A
N1020      O1035   1.262       .  A
N1020      O1036   1.262       .  A
N1022      O1033   1.263       .  A
N1022      O1034   1.263       .  A
C1024      C1025   1.405       .  A
C1024      N1029   1.439       .  S
C1025      C1026   1.408       .  A
C1025      H1030   1.083       .  S
C1026      C1027   1.416       .  A
C1027      C1028   1.406       .  A
C1027      N1031   1.431       .  S
C1028      H1032   1.083       .  S
N1029      O1039   1.263       .  A
N1029      O1040   1.263       .  A
N1031      O1037   1.262       .  A
N1031      O1038   1.262       .  A
C1041      C1042   1.402       .  A
C1041      C1046   1.399       .  A
C1041      H1051   1.084       .  S
C1042      C1047   1.488       .  S
C1042      C1043   1.414       .  A
C1043      C1044   1.407       .  A
C1043      N1048   1.438       .  S
C1044      C1045   1.409       .  A
C1044      H1049   1.083       .  S
C1045      C1046   1.417       .  A
C1046      N1050   1.432       .  S
C1047      C1052   1.412       .  A
C1047      C1056   1.404       .  A
N1048      O1063   1.263       .  A
N1048      O1064   1.263       .  A
N1050      O1061   1.262       .  A
N1050      O1062   1.262       .  A
C1052      C1053   1.400       .  A
C1052      N1057   1.439       .  S
C1053      C1054   1.408       .  A
C1053      H1058   1.083       .  S
C1054      C1055   1.419       .  A
C1055      C1056   1.407       .  A
C1055      N1059   1.435       .  S
C1056      H1060   1.083       .  S
N1057      O1067   1.263       .  A
N1057      O1068   1.263       .  A
N1059      O1065   1.262       .  A
N1059      O1066   1.263       .  A
C1069      C1070   1.403       .  A
C1069      C1074   1.410       .  A
C1069      H1079   1.084       .  S
C1070      C1075   1.485       .  S
C1070      C1071   1.412       .  A
C1071      C1072   1.402       .  A
C1071      N1076   1.440       .  S
C1072      C1073   1.409       .  A
C1072      H1077   1.083       .  S
C1073      C1074   1.421       .  A
C1074      N1078   1.434       .  S
C1075      C1080   1.416       .  A
C1075      C1084   1.400       .  A
N1076      O1091   1.262       .  A
N1076      O1092   1.263       .  A
N1078      O1089   1.262       .  A
N1078      O1090   1.262       .  A
C1080      C1081   1.409       .  A
C1080      N1085   1.435       .  S
C1081      C1082   1.403       .  A
C1081      H1086   1.084       .  S
C1082      C1083   1.415       .  A
C1083      C1084   1.402       .  A
C1083      N1087   1.438       .  S
C1084      H1088   1.084       .  S
N1085      O1095   1.262       .  A
N1085      O1096   1.262       .  A
N1087      O1093   1.263       .  A
N1087      O1094   1.263       .  A
C1097      C1098   1.405       .  A
C1097      C1102   1.407       .  A
C1097      H1107   1.084       .  S
C1098      C1103   1.496       .  S
C1098      C1099   1.416       .  A
C1099      C1100   1.408       .  A
C1099      N1104   1.440       .  S
C1100      C1101   1.409       .  A
C1100      H1105   1.083       .  S
C1101      C1102   1.417       .  A
C1102      N1106   1.433       .  S
C1103      C1108   1.418       .  A
C1103      C1112   1.402       .  A
N1104      O1119   1.263       .  A
N1104      O1120   1.263       .  A
N1106      O1117   1.263       .  A
N1106      O1118   1.262       .  A
C1108      C1109   1.411       .  A
C1108      N1113   1.440       .  S
C1109      C1110   1.409       .  A
C1109      H1114   1.083       .  S
C1110      C1111   1.420       .  A
C1111      C1112   1.404       .  A
C1111      N1115   1.431       .  S
C1112      H1116   1.084       .  S
N1113      O1123   1.263       .  A
N1113      O1124   1.263       .  A
N1115      O1121   1.262       .  A
N1115      O1122   1.262       .  A
C1125      C1126   1.404       .  A
C1125      C1130   1.406       .  A
C1125      H1135   1.083       .  S
C1126      C1131   1.491       .  S
C1126      C1127   1.415       .  A
C1127      C1128   1.405       .  A
C1127      N1132   1.439       .  S
C1128      C1129   1.406       .  A
C1128      H1133   1.083       .  S
C1129      C1130   1.416       .  A
C1130      N1134   1.437       .  S
C1131      C1136   1.415       .  A
C1131      C1140   1.403       .  A
N1132      O1147   1.263       .  A
N1132      O1148   1.263       .  A
N1134      O1145   1.263       .  A
N1134      O1146   1.263       .  A
C1136      C1137   1.407       .  A
C1136      N1141   1.438       .  S
C1137      C1138   1.408       .  A
C1137      H1142   1.083       .  S
C1138      C1139   1.417       .  A
C1139      C1140   1.402       .  A
C1139      N1143   1.430       .  S
C1140      H1144   1.084       .  S
N1141      O1151   1.263       .  A
N1141      O1152   1.263       .  A
N1143      O1149   1.262       .  A
N1143      O1150   1.262       .  A
C1153      C1154   1.403       .  A
C1153      C1158   1.395       .  A
C1153      H1163   1.087       .  S
C1154      C1159   1.482       .  S
C1154      C1155   1.415       .  A
C1155      C1156   1.405       .  A
C1155      N1160   1.440       .  S
C1156      C1157   1.404       .  A
C1156      H1161   1.086       .  S
C1157      C1158   1.410       .  A
C1158      N1162   1.429       .  S
C1159      C1164   1.412       .  A
C1159      C1168   1.402       .  A
N1160      O1175   1.263       .  A
N1160      O1176   1.263       .  A
N1162      O1173   1.262       .  A
N1162      O1174   1.262       .  A
C1164      C1165   1.402       .  A
C1164      N1169   1.440       .  S
C1165      C1166   1.409       .  A
C1165      H1170   1.085       .  S
C1166      C1167   1.418       .  A
C1167      C1168   1.399       .  A
C1167      N1171   1.433       .  S
C1168      H1172   1.087       .  S
N1169      O1179   1.263       .  A
N1169      O1180   1.263       .  A
N1171      O1177   1.263       .  A
N1171      O1178   1.262       .  A
C1181      C1182   1.404       .  A
C1181      C1186   1.402       .  A
C1181      H1191   1.083       .  S
C1182      C1187   1.487       .  S
C1182      C1183   1.415       .  A
C1183      C1184   1.406       .  A
C1183      N1188   1.437       .  S
C1184      C1185   1.403       .  A
C1184      H1189   1.084       .  S
C1185      C1186   1.411       .  A
C1186      N1190   1.440       .  S
C1187      C1192   1.408       .  A
C1187      C1196   1.403       .  A
N1188      O1203   1.262       .  A
N1188      O1204   1.263       .  A
N1190      O1201   1.263       .  A
N1190      O1202   1.263       .  A
C1192      C1193   1.394       .  A
C1192      N1197   1.430       .  S
C1193      C1194   1.405       .  A
C1193      H1198   1.083       .  S
C1194      C1195   1.420       .  A
C1195      C1196   1.409       .  A
C1195      N1199   1.434       .  S
C1196      H1200   1.083       .  S
N1197      O1207   1.262       .  A
N1197      O1208   1.261       .  A
N1199      O1205   1.262       .  A
N1199      O1206   1.262       .  A
C1209      C1210   1.402       .  A
C1209      C1214   1.404       .  A
C1209      H1219   1.084       .  S
C1210      C1215   1.486       .  S
C1210      C1211   1.415       .  A
C1211      C1212   1.403       .  A
C1211      N1216   1.439       .  S
C1212      C1213   1.407       .  A
C1212      H1217   1.083       .  S
C1213      C1214   1.417       .  A
C1214      N1218   1.429       .  S
C1215      C1220   1.416       .  A
C1215      C1224   1.402       .  A
N1216      O1231   1.263       .  A
N1216      O1232   1.263       .  A
N1218      O1229   1.262       .  A
N1218      O1230   1.262       .  A
C1220      C1221   1.408       .  A
C1220      N1225   1.439       .  S
C1221      C1222   1.402       .  A
C1221      H1226   1.083       .  S
C1222      C1223   1.410       .  A
C1223      C1224   1.400       .  A
C1223      N1227   1.433       .  S
C1224      H1228   1.084       .  S
N1225      O1235   1.263       .  A
N1225      O1236   1.263       .  A
N1227      O1233   1.262       .  A
N1227      O1234   1.262       .  A
C1237      C1238   1.403       .  A
C1237      C1242   1.402       .  A
C1237      H1247   1.084       .  S
C1238      C1243   1.491       .  S
C1238      C1239   1.418       .  A
C1239      C1240   1.408       .  A
C1239      N1244   1.439       .  S
C1240      C1241   1.405       .  A
C1240      H1245   1.083       .  S
C1241      C1242   1.416       .  A
C1242      N1246   1.437       .  S
C1243      C1248   1.418       .  A
C1243      C1252   1.402       .  A
N1244      O1259   1.262       .  A
N1244      O1260   1.263       .  A
N1246      O1257   1.263       .  A
N1246      O1258   1.263       .  A
C1248      C1249   1.411       .  A
C1248      N1253   1.440       .  S
C1249      C1250   1.404       .  A
C1249      H1254   1.083       .  S
C1250      C1251   1.416       .  A
C1251      C1252   1.402       .  A
C1251      N1255   1.443       .  S
C1252      H1256   1.084       .  S
N1253      O1263   1.262       .  A
N1253      O1264   1.263       .  A
N1255      O1261   1.263       .  A
N1255      O1262   1.263       .  A
C1265      C1266   1.401       .  A
C1265      C1270   1.404       .  A
C1265      H1275   1.084       .  S
C1266      C1271   1.487       .  S
C1266      C1267   1.412       .  A
C1267      C1268   1.407       .  A
C1267      N1272   1.437       .  S
C1268      C1269   1.410       .  A
C1268      H1273   1.083       .  S
C1269      C1270   1.418       .  A
C1270      N1274   1.428       .  S
C1271      C1276   1.412       .  A
C1271      C1280   1.402       .  A
N1272      O1287   1.262       .  A
N1272      O1288   1.262       .  A
N1274      O1285   1.262       .  A
N1274      O1286   1.262       .  A
C1276      C1277   1.407       .  A
C1276      N1281   1.436       .  S
C1277      C1278   1.406       .  A
C1277      H1282   1.084       .  S
C1278      C1279   1.417       .  A
C1279      C1280   1.406       .  A
C1279      N1283   1.438       .  S
C1280      H1284   1.084       .  S
N1281      O1291   1.263       .  A
N1281      O1292   1.262       .  A
N1283      O1289   1.262       .  A
N1283      O1290   1.263       .  A
C1293      C1294   1.401       .  A
C1293      C1298   1.397       .  A
C1293      H1303   1.084       .  S
C1294      C1299   1.486       .  S
C1294      C1295   1.414       .  A
C1295      C1296   1.409       .  A
C1295      N1300   1.440       .  S
C1296      C1297   1.410       .  A
C1296      H1301   1.082       .  S
C1297      C1298   1.418       .  A
C1298      N1302   1.431       .  S
C1299      C1304   1.416       .  A
C1299      C1308   1.403       .  A
N1300      O1315   1.263       .  A
N1300      O1316   1.263       .  A
N1302      O1313   1.262       .  A
N1302      O1314   1.262       .  A
C1304      C1305   1.406       .  A
C1304      N1309   1.438       .  S
C1305      C1306   1.400       .  A
C1305      H1310   1.083       .  S
C1306      C1307   1.411       .  A
C1307      C1308   1.401       .  A
C1307      N1311   1.435       .  S
C1308      H1312   1.084       .  S
N1309      O1319   1.263       .  A
N1309      O1320   1.262       .  A
N1311      O1317   1.262       .  A
N1311      O1318   1.262       .  A
C1321      C1322   1.407       .  A
C1321      C1326   1.405       .  A
C1321      H1331   1.082       .  S
C1322      C1327   1.500       .  S
C1322      C1323   1.419       .  A
C1323      C1324   1.409       .  A
C1323      N1328   1.439       .  S
C1324      C1325   1.404       .  A
C1324      H1329   1.083       .  S
C1325      C1326   1.413       .  A
C1326      N1330   1.437       .  S
C1327      C1332   1.420       .  A
C1327      C1336   1.407       .  A
N1328      O1343   1.263       .  A
N1328      O1344   1.263       .  A
N1330      O1341   1.262       .  A
N1330      O1342   1.263       .  A
C1332      C1333   1.409       .  A
C1332      N1337   1.439       .  S
C1333      C1334   1.402       .  A
C1333      H1338   1.083       .  S
C1334      C1335   1.409       .  A
C1335      C1336   1.403       .  A
C1335      N1339   1.436       .  S
C1336      H1340   1.082       .  S
N1337      O1347   1.263       .  A
N1337      O1348   1.263       .  A
N1339      O1345   1.262       .  A
N1339      O1346   1.262       .  A
C1349      C1350   1.401       .  A
C1349      C1354   1.403       .  A
C1349      H1359   1.084       .  S
C1350      C1355   1.480       .  S
C1350      C1351   1.414       .  A
C1351      C1352   1.406       .  A
C1351      N1356   1.438       .  S
C1352      C1353   1.403       .  A
C1352      H1357   1.084       .  S
C1353      C1354   1.412       .  A
C1354      N1358   1.435       .  S
C1355      C1360   1.410       .  A
C1355      C1364   1.401       .  A
N1356      O1371   1.263       .  A
N1356      O1372   1.262       .  A
N1358      O1369   1.262       .  A
N1358      O1370   1.262       .  A
C1360      C1361   1.403       .  A
C1360      N1365   1.437       .  S
C1361      C1362   1.410       .  A
C1361      H1366   1.083       .  S
C1362      C1363   1.417       .  A
C1363      C1364   1.403       .  A
C1363      N1367   1.431       .  S
C1364      H1368   1.084       .  S
N1365      O1375   1.262       .  A
N1365      O1376   1.262       .  A
N1367      O1373   1.262       .  A
N1367      O1374   1.262       .  A
C1377      C1378   1.405       .  A
C1377      C1382   1.408       .  A
C1377      H1387   1.083       .  S
C1378      C1383   1.495       .  S
C1378      C1379   1.415       .  A
C1379      C1380   1.405       .  A
C1379      N1384   1.438       .  S
C1380      C1381   1.408       .  A
C1380      H1385   1.083       .  S
C1381      C1382   1.419       .  A
C1382      N1386   1.435       .  S
C1383      C1388   1.416       .  A
C1383      C1392   1.409       .  A
N1384      O1399   1.263       .  A
N1384      O1400   1.263       .  A
N1386      O1397   1.263       .  A
N1386      O1398   1.263       .  A
C1388      C1389   1.404       .  A
C1388      N1393   1.436       .  S
C1389      C1390   1.403       .  A
C1389      H1394   1.084       .  S
C1390      C1391   1.408       .  A
C1391      C1392   1.406       .  A
C1391      N1395   1.429       .  S
C1392      H1396   1.083       .  S
N1393      O1403   1.262       .  A
N1393      O1404   1.263       .  A
N1395      O1401   1.262       .  A
N1395      O1402   1.262       .  A
C1405      C1406   1.403       .  A
C1405      C1410   1.404       .  A
C1405      H1415   1.084       .  S
C1406      C1411   1.491       .  S
C1406      C1407   1.416       .  A
C1407      C1408   1.406       .  A
C1407      N1412   1.439       .  S
C1408      C1409   1.408       .  A
C1408      H1413   1.083       .  S
C1409      C1410   1.418       .  A
C1410      N1414   1.435       .  S
C1411      C1416   1.417       .  A
C1411      C1420   1.404       .  A
N1412      O1427   1.262       .  A
N1412      O1428   1.263       .  A
N1414      O1425   1.263       .  A
N1414      O1426   1.263       .  A
C1416      C1417   1.408       .  A
C1416      N1421   1.441       .  S
C1417      C1418   1.405       .  A
C1417      H1422   1.082       .  S
C1418      C1419   1.413       .  A
C1419      C1420   1.404       .  A
C1419      N1423   1.435       .  S
C1420      H1424   1.084       .  S
N1421      O1431   1.263       .  A
N1421      O1432   1.263       .  A
N1423      O1429   1.262       .  A
N1423      O1430   1.262       .  A
C1433      C1434   1.403       .  A
C1433      C1438   1.404       .  A
C1433      H1443   1.083       .  S
C1434      C1439   1.493       .  S
C1434      C1435   1.416       .  A
C1435      C1436   1.407       .  A
C1435      N1440   1.439       .  S
C1436      C1437   1.407       .  A
C1436      H1441   1.083       .  S
C1437      C1438   1.417       .  A
C1438      N1442   1.435       .  S
C1439      C1444   1.415       .  A
C1439      C1448   1.402       .  A
N1440      O1455   1.263       .  A
N1440      O1456   1.263       .  A
N1442      O1453   1.262       .  A
N1442      O1454   1.263       .  A
C1444      C1445   1.407       .  A
C1444      N1449   1.437       .  S
C1445      C1446   1.409       .  A
C1445      H1450   1.083       .  S
C1446      C1447   1.419       .  A
C1447      C1448   1.402       .  A
C1447      N1451   1.432       .  S
C1448      H1452   1.084       .  S
N1449      O1459   1.263       .  A
N1449      O1460   1.263       .  A
N1451      O1457   1.262       .  A
N1451      O1458   1.262       .  A
C1461      C1462   1.404       .  A
C1461      C1466   1.400       .  A
C1461      H1471   1.083       .  S
C1462      C1467   1.483       .  S
C1462      C1463   1.415       .  A
C1463      C1464   1.401       .  A
C1463      N1468   1.438       .  S
C1464      C1465   1.402       .  A
C1464      H1469   1.083       .  S
C1465      C1466   1.413       .  A
C1466      N1470   1.437       .  S
C1467      C1472   1.414       .  A
C1467      C1476   1.403       .  A
N1468      O1483   1.263       .  A
N1468      O1484   1.263       .  A
N1470      O1481   1.263       .  A
N1470      O1482   1.263       .  A
C1472      C1473   1.400       .  A
C1472      N1477   1.438       .  S
C1473      C1474   1.405       .  A
C1473      H1478   1.083       .  S
C1474      C1475   1.415       .  A
C1475      C1476   1.400       .  A
C1475      N1479   1.436       .  S
C1476      H1480   1.083       .  S
N1477      O1487   1.263       .  A
N1477      O1488   1.263       .  A
N1479      O1485   1.262       .  A
N1479      O1486   1.263       .  A
C1489      C1490   1.406       .  A
C1489      C1494   1.404       .  A
C1489      H1499   1.083       .  S
C1490      C1495   1.485       .  S
C1490      C1491   1.414       .  A
C1491      C1492   1.402       .  A
C1491      N1496   1.437       .  S
C1492      C1493   1.403       .  A
C1492      H1497   1.084       .  S
C1493      C1494   1.407       .  A
C1494      N1498   1.431       .  S
C1495      C1500   1.412       .  A
C1495      C1504   1.402       .  A
N1496      O1511   1.262       .  A
N1496      O1512   1.263       .  A
N1498      O1509   1.262       .  A
N1498      O1510   1.262       .  A
C1500      C1501   1.402       .  A
C1500      N1505   1.436       .  S
C1501      C1502   1.407       .  A
C1501      H1506   1.083       .  S
C1502      C1503   1.420       .  A
C1503      C1504   1.405       .  A
C1503      N1507   1.436       .  S
C1504      H1508   1.084       .  S
N1505      O1515   1.262       .  A
N1505      O1516   1.263       .  A
N1507      O1513   1.263       .  A
N1507      O1514   1.263       .  A
C1517      C1518   1.403       .  A
C1517      C1522   1.405       .  A
C1517      H1527   1.084       .  S
C1518      C1523   1.487       .  S
C1518      C1519   1.414       .  A
C1519      C1520   1.405       .  A
C1519      N1524   1.439       .  S
C1520      C1521   1.406       .  A
C1520      H1525   1.083       .  S
C1521      C1522   1.417       .  A
C1522      N1526   1.437       .  S
C1523      C1528   1.414       .  A
C1523      C1532   1.402       .  A
N1524      O1539   1.263       .  A
N1524      O1540   1.263       .  A
N1526      O1537   1.263       .  A
N1526      O1538   1.263       .  A
C1528      C1529   1.407       .  A
C1528      N1533   1.439       .  S
C1529      C1530   1.409       .  A
C1529      H1534   1.083       .  S
C1530      C1531   1.416       .  A
C1531      C1532   1.400       .  A
C1531      N1535   1.429       .  S
C1532      H1536   1.084       .  S
N1533      O1543   1.263       .  A
N1533      O1544   1.263       .  A
N1535      O1541   1.262       .  A
N1535      O1542   1.262       .  A
C1545      C1546   1.404       .  A
C1545      C1550   1.404       .  A
C1545      H1555   1.083       .  S
C1546      C1551   1.491       .  S
C1546      C1547   1.414       .  A
C1547      C1548   1.405       .  A
C1547      N1552   1.437       .  S
C1548      C1549   1.409       .  A
C1548      H1553   1.083       .  S
C1549      C1550   1.417       .  A
C1550      N1554   1.433       .  S
C1551      C1556   1.414       .  A
C1551      C1560   1.408       .  A
N1552      O1567   1.263       .  A
N1552      O1568   1.262       .  A
N1554      O1565   1.262       .  A
N1554      O1566   1.262       .  A
C1556      C1557   1.399       .  A
C1556      N1561   1.437       .  S
C1557      C1558   1.405       .  A
C1557      H1562   1.083       .  S
C1558      C1559   1.414       .  A
C1559      C1560   1.409       .  A
C1559      N1563   1.434       .  S
C1560      H1564   1.083       .  S
N1561      O1571   1.262       .  A
N1561      O1572   1.263       .  A
N1563      O1569   1.262       .  A
N1563      O1570   1.263       .  A
C1573      C1574   1.407       .  A
C1573      C1578   1.406       .  A
C1573      H1583   1.083       .  S
C1574      C1579   1.496       .  S
C1574      C1575   1.419       .  A
C1575      C1576   1.404       .  A
C1575      N1580   1.438       .  S
C1576      C1577   1.401       .  A
C1576      H1581   1.084       .  S
C1577      C1578   1.413       .  A
C1578      N1582   1.439       .  S
C1579      C1584   1.418       .  A
C1579      C1588   1.406       .  A
N1580      O1595   1.263       .  A
N1580      O1596   1.263       .  A
N1582      O1593   1.263       .  A
N1582      O1594   1.262       .  A
C1584      C1585   1.406       .  A
C1584      N1589   1.437       .  S
C1585      C1586   1.404       .  A
C1585      H1590   1.083       .  S
C1586      C1587   1.416       .  A
C1587      C1588   1.404       .  A
C1587      N1591   1.437       .  S
C1588      H1592   1.083       .  S
N1589      O1599   1.263       .  A
N1589      O1600   1.263       .  A
N1591      O1597   1.263       .  A
N1591      O1598   1.263       .  A
C1601      C1602   1.402       .  A
C1601      C1606   1.407       .  A
C1601      H1611   1.084       .  S
C1602      C1607   1.483       .  S
C1602      C1603   1.411       .  A
C1603      C1604   1.401       .  A
C1603      N1608   1.437       .  S
C1604      C1605   1.409       .  A
C1604      H1609   1.083       .  S
C1605      C1606   1.418       .  A
C1606      N1610   1.429       .  S
C1607      C1612   1.415       .  A
C1607      C1616   1.399       .  A
N1608      O1623   1.262       .  A
N1608      O1624   1.262       .  A
N1610      O1621   1.261       .  A
N1610      O1622   1.262       .  A
C1612      C1613   1.409       .  A
C1612      N1617   1.434       .  S
C1613      C1614   1.403       .  A
C1613      H1618   1.084       .  S
C1614      C1615   1.414       .  A
C1615      C1616   1.401       .  A
C1615      N1619   1.437       .  S
C1616      H1620   1.084       .  S
N1617      O1627   1.262       .  A
N1617      O1628   1.262       .  A
N1619      O1625   1.262       .  A
N1619      O1626   1.263       .  A
C1629      C1630   1.401       .  A
C1629      C1634   1.403       .  A
C1629      H1639   1.084       .  S
C1630      C1635   1.483       .  S
C1630      C1631   1.413       .  A
C1631      C1632   1.404       .  A
C1631      N1636   1.438       .  S
C1632      C1633   1.407       .  A
C1632      H1637   1.083       .  S
C1633      C1634   1.419       .  A
C1634      N1638   1.435       .  S
C1635      C1640   1.412       .  A
C1635      C1644   1.405       .  A
N1636      O1651   1.263       .  A
N1636      O1652   1.263       .  A
N1638      O1649   1.262       .  A
N1638      O1650   1.262       .  A
C1640      C1641   1.399       .  A
C1640      N1645   1.439       .  S
C1641      C1642   1.405       .  A
C1641      H1646   1.084       .  S
C1642      C1643   1.413       .  A
C1643      C1644   1.409       .  A
C1643      N1647   1.436       .  S
C1644      H1648   1.083       .  S
N1645      O1655   1.262       .  A
N1645      O1656   1.263       .  A
N1647      O1653   1.262       .  A
N1647      O1654   1.262       .  A
C1657      C1658   1.406       .  A
C1657      C1662   1.405       .  A
C1657      H1667   1.083       .  S
C1658      C1663   1.504       .  S
C1658      C1659   1.420       .  A
C1659      C1660   1.411       .  A
C1659      N1664   1.439       .  S
C1660      C1661   1.405       .  A
C1660      H1665   1.083       .  S
C1661      C1662   1.416       .  A
C1662      N1666   1.436       .  S
C1663      C1668   1.420       .  A
C1663      C1672   1.407       .  A
N1664      O1679   1.263       .  A
N1664      O1680   1.263       .  A
N1666      O1677   1.263       .  A
N1666      O1678   1.263       .  A
C1668      C1669   1.410       .  A
C1668      N1673   1.439       .  S
C1669      C1670   1.404       .  A
C1669      H1674   1.083       .  S
C1670      C1671   1.416       .  A
C1671      C1672   1.407       .  A
C1671      N1675   1.436       .  S
C1672      H1676   1.083       .  S
N1673      O1683   1.263       .  A
N1673      O1684   1.263       .  A
N1675      O1681   1.262       .  A
N1675      O1682   1.263       .  A
C1685      C1686   1.406       .  A
C1685      C1690   1.404       .  A
C1685      H1695   1.083       .  S
C1686      C1691   1.497       .  S
C1686      C1687   1.416       .  A
C1687      C1688   1.407       .  A
C1687      N1692   1.438       .  S
C1688      C1689   1.408       .  A
C1688      H1693   1.083       .  S
C1689      C1690   1.416       .  A
C1690      N1694   1.429       .  S
C1691      C1696   1.416       .  A
C1691      C1700   1.405       .  A
N1692      O1707   1.263       .  A
N1692      O1708   1.263       .  A
N1694      O1705   1.262       .  A
N1694      O1706   1.262       .  A
C1696      C1697   1.408       .  A
C1696      N1701   1.439       .  S
C1697      C1698   1.410       .  A
C1697      H1702   1.083       .  S
C1698      C1699   1.417       .  A
C1699      C1700   1.404       .  A
C1699      N1703   1.431       .  S
C1700      H1704   1.083       .  S
N1701      O1711   1.263       .  A
N1701      O1712   1.263       .  A
N1703      O1709   1.262       .  A
N1703      O1710   1.262       .  A
C1713      C1714   1.408       .  A
C1713      C1718   1.406       .  A
C1713      H1723   1.084       .  S
C1714      C1719   1.493       .  S
C1714      C1715   1.416       .  A
C1715      C1716   1.403       .  A
C1715      N1720   1.438       .  S
C1716      C1717   1.404       .  A
C1716      H1721   1.084       .  S
C1717      C1718   1.409       .  A
C1718      N1722   1.429       .  S
C1719      C1724   1.417       .  A
C1719      C1728   1.403       .  A
N1720      O1735   1.262       .  A
N1720      O1736   1.263       .  A
N1722      O1733   1.262       .  A
N1722      O1734   1.262       .  A
C1724      C1725   1.411       .  A
C1724      N1729   1.440       .  S
C1725      C1726   1.409       .  A
C1725      H1730   1.083       .  S
C1726      C1727   1.417       .  A
C1727      C1728   1.403       .  A
C1727      N1731   1.435       .  S
C1728      H1732   1.084       .  S
N1729      O1739   1.263       .  A
N1729      O1740   1.263       .  A
N1731      O1737   1.262       .  A
N1731      O1738   1.263       .  A
C1741      C1742   1.401       .  A
C1741      C1746   1.402       .  A
C1741      H1751   1.084       .  S
C1742      C1747   1.490       .  S
C1742      C1743   1.419       .  A
C1743      C1744   1.412       .  A
C1743      N1748   1.440       .  S
C1744      C1745   1.403       .  A
C1744      H1749   1.083       .  S
C1745      C1746   1.413       .  A
C1746      N1750   1.437       .  S
C1747      C1752   1.415       .  A
C1747      C1756   1.402       .  A
N1748      O1763   1.263       .  A
N1748      O1764   1.263       .  A
N1750      O1761   1.263       .  A
N1750      O1762   1.262       .  A
C1752      C1753   1.406       .  A
C1752      N1757   1.439       .  S
C1753      C1754   1.409       .  A
C1753      H1758   1.083       .  S
C1754      C1755   1.419       .  A
C1755      C1756   1.406       .  A
C1755      N1759   1.431       .  S
C1756      H1760   1.084       .  S
N1757      O1767   1.263       .  A
N1757      O1768   1.263       .  A
N1759      O1765   1.262       .  A
N1759      O1766   1.262       .  A
C1769      C1770   1.403       .  A
C1769      C1774   1.400       .  A
C1769      H1779   1.084       .  S
C1770      C1775   1.486       .  S
C1770      C1771   1.417       .  A
C1771      C1772   1.408       .  A
C1771      N1776   1.438       .  S
C1772      C1773   1.403       .  A
C1772      H1777   1.084       .  S
C1773      C1774   1.408       .  A
C1774      N1778   1.434       .  S
C1775      C1780   1.416       .  A
C1775      C1784   1.402       .  A
N1776      O1791   1.263       .  A
N1776      O1792   1.262       .  A
N1778      O1789   1.262       .  A
N1778      O1790   1.262       .  A
C1780      C1781   1.410       .  A
C1780      N1785   1.440       .  S
C1781      C1782   1.407       .  A
C1781      H1786   1.083       .  S
C1782      C1783   1.414       .  A
C1783      C1784   1.398       .  A
C1783      N1787   1.436       .  S
C1784      H1788   1.084       .  S
N1785      O1795   1.263       .  A
N1785      O1796   1.263       .  A
N1787      O1793   1.262       .  A
N1787      O1794   1.263       .  A
C1797      C1798   1.401       .  A
C1797      C1802   1.401       .  A
C1797      H1807   1.084       .  S
C1798      C1803   1.489       .  S
C1798      C1799   1.413       .  A
C1799      C1800   1.408       .  A
C1799      N1804   1.434       .  S
C1800      C1801   1.405       .  A
C1800      H1805   1.083       .  S
C1801      C1802   1.417       .  A
C1802      N1806   1.439       .  S
C1803      C1808   1.414       .  A
C1803      C1812   1.403       .  A
N1804      O1819   1.262       .  A
N1804      O1820   1.262       .  A
N1806      O1817   1.263       .  A
N1806      O1818   1.263       .  A
C1808      C1809   1.406       .  A
C1808      N1813   1.440       .  S
C1809      C1810   1.407       .  A
C1809      H1814   1.083       .  S
C1810      C1811   1.418       .  A
C1811      C1812   1.404       .  A
C1811      N1815   1.433       .  S
C1812      H1816   1.084       .  S
N1813      O1823   1.263       .  A
N1813      O1824   1.263       .  A
N1815      O1821   1.263       .  A
N1815      O1822   1.262       .  A
C1825      C1826   1.401   1_554  A
C1825      C1830   1.399       .  A
C1825      H1835   1.083       .  S
C1826      C1831   1.481   1_556  S
C1826      C1827   1.413       .  A
C1827      C1828   1.400       .  A
C1827      N1832   1.438       .  S
C1828      C1829   1.407       .  A
C1828      H1833   1.082       .  S
C1829      C1830   1.418   1_556  A
C1830      N1834   1.429       .  S
C1831      C1836   1.414       .  A
C1831      C1840   1.403   1_554  A
N1832      O1847   1.263       .  A
N1832      O1848   1.263       .  A
N1834      O1845   1.262       .  A
N1834      O1846   1.262       .  A
C1836      C1837   1.400       .  A
C1836      N1841   1.438       .  S
C1837      C1838   1.404       .  A
C1837      H1842   1.083       .  S
C1838      C1839   1.415   1_554  A
C1839      C1840   1.402       .  A
C1839      N1843   1.438       .  S
C1840      H1844   1.083       .  S
N1841      O1851   1.263       .  A
N1841      O1852   1.263       .  A
N1843      O1849   1.263       .  A
N1843      O1850   1.263       .  A
C1853      C1854   1.402       .  A
C1853      C1858   1.398       .  A
C1853      H1863   1.084       .  S
C1854      C1859   1.488       .  S
C1854      C1855   1.413       .  A
C1855      C1856   1.410       .  A
C1855      N1860   1.438       .  S
C1856      C1857   1.410       .  A
C1856      H1861   1.083       .  S
C1857      C1858   1.416       .  A
C1858      N1862   1.429       .  S
C1859      C1864   1.417       .  A
C1859      C1868   1.403       .  A
N1860      O1875   1.263       .  A
N1860      O1876   1.263       .  A
N1862      O1873   1.262       .  A
N1862      O1874   1.262       .  A
C1864      C1865   1.408       .  A
C1864      N1869   1.439       .  S
C1865      C1866   1.401       .  A
C1865      H1870   1.083       .  S
C1866      C1867   1.411       .  A
C1867      C1868   1.400       .  A
C1867      N1871   1.433       .  S
C1868      H1872   1.084       .  S
N1869      O1879   1.263       .  A
N1869      O1880   1.263       .  A
N1871      O1877   1.262       .  A
N1871      O1878   1.262       .  A
C1881      C1882   1.402       .  A
C1881      C1886   1.400       .  A
C1881      H1891   1.083       .  S
C1882      C1887   1.486       .  S
C1882      C1883   1.414       .  A
C1883      C1884   1.409       .  A
C1883      N1888   1.438       .  S
C1884      C1885   1.406       .  A
C1884      H1889   1.083       .  S
C1885      C1886   1.415       .  A
C1886      N1890   1.438       .  S
C1887      C1892   1.413       .  A
C1887      C1896   1.402       .  A
N1888      O1903   1.263       .  A
N1888      O1904   1.263       .  A
N1890      O1901   1.263       .  A
N1890      O1902   1.263       .  A
C1892      C1893   1.404       .  A
C1892      N1897   1.439       .  S
C1893      C1894   1.408       .  A
C1893      H1898   1.083       .  S
C1894      C1895   1.417       .  A
C1895      C1896   1.402       .  A
C1895      N1899   1.432       .  S
C1896      H1900   1.084       .  S
N1897      O1907   1.263       .  A
N1897      O1908   1.263       .  A
N1899      O1905   1.262       .  A
N1899      O1906   1.262       .  A
C1909      C1910   1.403       .  A
C1909      C1914   1.399       .  A
C1909      H1919   1.084       .  S
C1910      C1915   1.479       .  S
C1910      C1911   1.412   1_455  A
C1911      C1912   1.403       .  A
C1911      N1916   1.441       .  S
C1912      C1913   1.406   1_655  A
C1912      H1917   1.083       .  S
C1913      C1914   1.413       .  A
C1914      N1918   1.435       .  S
C1915      C1920   1.415   1_455  A
C1915      C1924   1.401       .  A
N1916      O1931   1.263       .  A
N1916      O1932   1.263       .  A
N1918      O1929   1.262       .  A
N1918      O1930   1.262       .  A
C1920      C1921   1.399       .  A
C1920      N1925   1.438       .  S
C1921      C1922   1.405       .  A
C1921      H1926   1.083       .  S
C1922      C1923   1.418   1_655  A
C1923      C1924   1.402       .  A
C1923      N1927   1.437       .  S
C1924      H1928   1.084       .  S
N1925      O1935   1.263       .  A
N1925      O1936   1.263       .  A
N1927      O1933   1.263       .  A
N1927      O1934   1.263       .  A
C1937      C1938   1.403       .  A
C1937      C1942   1.403       .  A
C1937      H1947   1.081       .  S
C1938      C1943   1.479       .  S
C1938      C1939   1.415       .  A
C1939      C1940   1.398       .  A
C1939      N1944   1.439       .  S
C1940      C1941   1.403       .  A
C1940      H1945   1.082       .  S
C1941      C1942   1.413       .  A
C1942      N1946   1.437       .  S
C1943      C1948   1.415       .  A
C1943      C1952   1.401       .  A
N1944      O1959   1.263       .  A
N1944      O1960   1.263       .  A
N1946      O1957   1.262       .  A
N1946      O1958   1.263       .  A
C1948      C1949   1.403       .  A
C1948      N1953   1.441       .  S
C1949      C1950   1.404       .  A
C1949      H1954   1.084       .  S
C1950      C1951   1.414       .  A
C1951      C1952   1.397       .  A
C1951      N1955   1.434       .  S
C1952      H1956   1.085       .  S
N1953      O1963   1.263       .  A
N1953      O1964   1.263       .  A
N1955      O1961   1.262       .  A
N1955      O1962   1.263       .  A
C1965      C1966   1.403       .  A
C1965      C1970   1.401       .  A
C1965      H1975   1.084       .  S
C1966      C1971   1.490       .  S
C1966      C1967   1.416       .  A
C1967      C1968   1.406       .  A
C1967      N1972   1.438       .  S
C1968      C1969   1.408       .  A
C1968      H1973   1.083       .  S
C1969      C1970   1.416       .  A
C1970      N1974   1.429       .  S
C1971      C1976   1.414       .  A
C1971      C1980   1.407       .  A
N1972      O1987   1.263       .  A
N1972      O1988   1.263       .  A
N1974      O1985   1.262       .  A
N1974      O1986   1.262       .  A
C1976      C1977   1.400       .  A
C1976      N1981   1.438       .  S
C1977      C1978   1.404       .  A
C1977      H1982   1.084       .  S
C1978      C1979   1.413       .  A
C1979      C1980   1.408       .  A
C1979      N1983   1.434       .  S
C1980      H1984   1.083       .  S
N1981      O1991   1.263       .  A
N1981      O1992   1.263       .  A
N1983      O1989   1.262       .  A
N1983      O1990   1.262       .  A
C1993      C1994   1.401       .  A
C1993      C1998   1.402       .  A
C1993      H2003   1.084       .  S
C1994      C1999   1.483       .  S
C1994      C1995   1.414       .  A
C1995      C1996   1.406       .  A
C1995      N2000   1.439       .  S
C1996      C1997   1.407       .  A
C1996      H2001   1.083       .  S
C1997      C1998   1.417       .  A
C1998      N2002   1.436       .  S
C1999      C2004   1.411       .  A
C1999      C2008   1.406       .  A
N2000      O2015   1.263       .  A
N2000      O2016   1.263       .  A
N2002      O2013   1.263       .  A
N2002      O2014   1.263       .  A
C2004      C2005   1.398       .  A
C2004      N2009   1.439       .  S
C2005      C2006   1.406       .  A
C2005      H2010   1.084       .  S
C2006      C2007   1.414       .  A
C2007      C2008   1.409       .  A
C2007      N2011   1.433       .  S
C2008      H2012   1.083       .  S
N2009      O2019   1.263       .  A
N2009      O2020   1.263       .  A
N2011      O2017   1.262       .  A
N2011      O2018   1.262       .  A
C2021      C2022   1.404       .  A
C2021      C2026   1.405       .  A
C2021      H2031   1.083       .  S
C2022      C2027   1.492       .  S
C2022      C2023   1.415       .  A
C2023      C2024   1.406       .  A
C2023      N2028   1.438       .  S
C2024      C2025   1.406       .  A
C2024      H2029   1.083       .  S
C2025      C2026   1.417       .  A
C2026      N2030   1.436       .  S
C2027      C2032   1.415       .  A
C2027      C2036   1.407       .  A
N2028      O2043   1.263       .  A
N2028      O2044   1.263       .  A
N2030      O2041   1.263       .  A
N2030      O2042   1.263       .  A
C2032      C2033   1.402       .  A
C2032      N2037   1.436       .  S
C2033      C2034   1.404       .  A
C2033      H2038   1.084       .  S
C2034      C2035   1.411       .  A
C2035      C2036   1.406       .  A
C2035      N2039   1.430       .  S
C2036      H2040   1.083       .  S
N2037      O2047   1.262       .  A
N2037      O2048   1.263       .  A
N2039      O2045   1.262       .  A
N2039      O2046   1.262       .  A
C2049      C2050   1.402       .  A
C2049      C2054   1.403       .  A
C2049      H2059   1.084       .  S
C2050      C2055   1.482       .  S
C2050      C2051   1.414       .  A
C2051      C2052   1.401       .  A
C2051      N2056   1.439       .  S
C2052      C2053   1.407       .  A
C2052      H2057   1.083       .  S
C2053      C2054   1.417       .  A
C2054      N2058   1.429       .  S
C2055      C2060   1.416       .  A
C2055      C2064   1.401       .  A
N2056      O2071   1.263       .  A
N2056      O2072   1.263       .  A
N2058      O2069   1.262       .  A
N2058      O2070   1.262       .  A
C2060      C2061   1.408       .  A
C2060      N2065   1.441       .  S
C2061      C2062   1.402       .  A
C2061      H2066   1.083       .  S
C2062      C2063   1.412       .  A
C2063      C2064   1.400       .  A
C2063      N2067   1.440       .  S
C2064      H2068   1.084       .  S
N2065      O2075   1.263       .  A
N2065      O2076   1.263       .  A
N2067      O2073   1.263       .  A
N2067      O2074   1.263       .  A
C2077      C2078   1.404       .  A
C2077      C2082   1.403       .  A
C2077      H2087   1.083       .  S
C2078      C2083   1.495       .  S
C2078      C2079   1.416       .  A
C2079      C2080   1.408       .  A
C2079      N2084   1.439       .  S
C2080      C2081   1.409       .  A
C2080      H2085   1.083       .  S
C2081      C2082   1.416       .  A
C2082      N2086   1.429       .  S
C2083      C2088   1.417       .  A
C2083      C2092   1.404       .  A
N2084      O2099   1.263       .  A
N2084      O2100   1.263       .  A
N2086      O2097   1.262       .  A
N2086      O2098   1.262       .  A
C2088      C2089   1.408       .  A
C2088      N2093   1.439       .  S
C2089      C2090   1.408       .  A
C2089      H2094   1.083       .  S
C2090      C2091   1.416       .  A
C2091      C2092   1.402       .  A
C2091      N2095   1.429       .  S
C2092      H2096   1.083       .  S
N2093      O2103   1.263       .  A
N2093      O2104   1.263       .  A
N2095      O2101   1.262       .  A
N2095      O2102   1.262       .  A
C2105      C2106   1.404       .  A
C2105      C2110   1.401       .  A
C2105      H2115   1.083       .  S
C2106      C2111   1.491       .  S
C2106      C2107   1.415       .  A
C2107      C2108   1.409       .  A
C2107      N2112   1.439       .  S
C2108      C2109   1.408       .  A
C2108      H2113   1.083       .  S
C2109      C2110   1.415       .  A
C2110      N2114   1.436       .  S
C2111      C2116   1.418       .  A
C2111      C2120   1.407       .  A
N2112      O2127   1.263       .  A
N2112      O2128   1.263       .  A
N2114      O2125   1.263       .  A
N2114      O2126   1.263       .  A
C2116      C2117   1.404       .  A
C2116      N2121   1.440       .  S
C2117      C2118   1.400       .  A
C2117      H2122   1.083       .  S
C2118      C2119   1.406       .  A
C2119      C2120   1.402       .  A
C2119      N2123   1.429       .  S
C2120      H2124   1.083       .  S
N2121      O2131   1.263       .  A
N2121      O2132   1.263       .  A
N2123      O2129   1.262       .  A
N2123      O2130   1.262       .  A
C2133      C2134   1.408       .  A
C2133      C2138   1.407       .  A
C2133      H2143   1.083       .  S
C2134      C2139   1.496       .  S
C2134      C2135   1.417       .  A
C2135      C2136   1.405       .  A
C2135      N2140   1.439       .  S
C2136      C2137   1.402       .  A
C2136      H2141   1.083       .  S
C2137      C2138   1.413       .  A
C2138      N2142   1.439       .  S
C2139      C2144   1.417       .  A
C2139      C2148   1.406       .  A
N2140      O2155   1.263       .  A
N2140      O2156   1.263       .  A
N2142      O2153   1.263       .  A
N2142      O2154   1.262       .  A
C2144      C2145   1.406       .  A
C2144      N2149   1.438       .  S
C2145      C2146   1.406       .  A
C2145      H2150   1.083       .  S
C2146      C2147   1.415       .  A
C2147      C2148   1.405       .  A
C2147      N2151   1.437       .  S
C2148      H2152   1.083       .  S
N2149      O2159   1.263       .  A
N2149      O2160   1.263       .  A
N2151      O2157   1.263       .  A
N2151      O2158   1.263       .  A
C2161      C2162   1.403       .  A
C2161      C2166   1.399       .  A
C2161      H2171   1.084       .  S
C2162      C2167   1.484       .  S
C2162      C2163   1.415       .  A
C2163      C2164   1.406       .  A
C2163      N2168   1.440       .  S
C2164      C2165   1.407       .  A
C2164      H2169   1.083       .  S
C2165      C2166   1.413       .  A
C2166      N2170   1.430       .  S
C2167      C2172   1.417       .  A
C2167      C2176   1.401       .  A
N2168      O2183   1.263       .  A
N2168      O2184   1.263       .  A
N2170      O2181   1.262       .  A
N2170      O2182   1.262       .  A
C2172      C2173   1.408       .  A
C2172      N2177   1.439       .  S
C2173      C2174   1.401       .  A
C2173      H2178   1.083       .  S
C2174      C2175   1.412       .  A
C2175      C2176   1.399       .  A
C2175      N2179   1.438       .  S
C2176      H2180   1.084       .  S
N2177      O2187   1.263       .  A
N2177      O2188   1.263       .  A
N2179      O2185   1.263       .  A
N2179      O2186   1.263       .  A
C2189      C2190   1.404       .  A
C2189      C2194   1.401       .  A
C2189      H2199   1.083       .  S
C2190      C2195   1.493       .  S
C2190      C2191   1.418       .  A
C2191      C2192   1.407       .  A
C2191      N2196   1.438       .  S
C2192      C2193   1.404       .  A
C2192      H2197   1.083       .  S
C2193      C2194   1.415       .  A
C2194      N2198   1.437       .  S
C2195      C2200   1.418       .  A
C2195      C2204   1.406       .  A
N2196      O2211   1.263       .  A
N2196      O2212   1.263       .  A
N2198      O2209   1.263       .  A
N2198      O2210   1.263       .  A
C2200      C2201   1.405       .  A
C2200      N2205   1.439       .  S
C2201      C2202   1.401       .  A
C2201      H2206   1.083       .  S
C2202      C2203   1.413       .  A
C2203      C2204   1.404       .  A
C2203      N2207   1.438       .  S
C2204      H2208   1.083       .  S
N2205      O2215   1.263       .  A
N2205      O2216   1.263       .  A
N2207      O2213   1.263       .  A
N2207      O2214   1.263       .  A
C2217      C2218   1.403       .  A
C2217      C2222   1.401       .  A
C2217      H2227   1.084       .  S
C2218      C2223   1.489       .  S
C2218      C2219   1.414       .  A
C2219      C2220   1.406       .  A
C2219      N2224   1.438       .  S
C2220      C2221   1.408       .  A
C2220      H2225   1.083       .  S
C2221      C2222   1.418       .  A
C2222      N2226   1.433       .  S
C2223      C2228   1.414       .  A
C2223      C2232   1.404       .  A
N2224      O2239   1.263       .  A
N2224      O2240   1.263       .  A
N2226      O2237   1.262       .  A
N2226      O2238   1.262       .  A
C2228      C2229   1.404       .  A
C2228      N2233   1.438       .  S
C2229      C2230   1.408       .  A
C2229      H2234   1.083       .  S
C2230      C2231   1.414       .  A
C2231      C2232   1.402       .  A
C2231      N2235   1.429       .  S
C2232      H2236   1.083       .  S
N2233      O2243   1.263       .  A
N2233      O2244   1.263       .  A
N2235      O2241   1.262       .  A
N2235      O2242   1.262       .  A
C2245      C2246   1.405       .  A
C2245      C2250   1.405       .  A
C2245      H2255   1.083       .  S
C2246      C2251   1.486       .  S
C2246      C2247   1.414       .  A
C2247      C2248   1.401       .  A
C2247      N2252   1.437       .  S
C2248      C2249   1.404       .  A
C2248      H2253   1.084       .  S
C2249      C2250   1.411       .  A
C2250      N2254   1.432       .  S
C2251      C2256   1.413       .  A
C2251      C2260   1.401       .  A
N2252      O2267   1.262       .  A
N2252      O2268   1.263       .  A
N2254      O2265   1.262       .  A
N2254      O2266   1.262       .  A
C2256      C2257   1.403       .  A
C2256      N2261   1.437       .  S
C2257      C2258   1.407       .  A
C2257      H2262   1.083       .  S
C2258      C2259   1.421       .  A
C2259      C2260   1.403       .  A
C2259      N2263   1.434       .  S
C2260      H2264   1.084       .  S
N2261      O2271   1.262       .  A
N2261      O2272   1.263       .  A
N2263      O2269   1.262       .  A
N2263      O2270   1.262       .  A
C2273      C2274   1.405       .  A
C2273      C2278   1.398       .  A
C2273      H2283   1.083       .  S
C2274      C2279   1.489       .  S
C2274      C2275   1.419       .  A
C2275      C2276   1.407       .  A
C2275      N2280   1.440       .  S
C2276      C2277   1.400       .  A
C2276      H2281   1.083       .  S
C2277      C2278   1.405       .  A
C2278      N2282   1.429       .  S
C2279      C2284   1.415       .  A
C2279      C2288   1.403       .  A
N2280      O2295   1.263       .  A
N2280      O2296   1.263       .  A
N2282      O2293   1.262       .  A
N2282      O2294   1.262       .  A
C2284      C2285   1.407       .  A
C2284      N2289   1.440       .  S
C2285      C2286   1.409       .  A
C2285      H2290   1.082       .  S
C2286      C2287   1.417       .  A
C2287      C2288   1.400       .  A
C2287      N2291   1.433       .  S
C2288      H2292   1.083       .  S
N2289      O2299   1.263       .  A
N2289      O2300   1.263       .  A
N2291      O2297   1.262       .  A
N2291      O2298   1.262       .  A
C2301      C2302   1.402       .  A
C2301      C2306   1.399       .  A
C2301      H2311   1.084       .  S
C2302      C2307   1.480       .  S
C2302      C2303   1.414       .  A
C2303      C2304   1.402       .  A
C2303      N2308   1.441       .  S
C2304      C2305   1.404       .  A
C2304      H2309   1.084       .  S
C2305      C2306   1.414       .  A
C2306      N2310   1.436       .  S
C2307      C2312   1.414       .  A
C2307      C2316   1.400       .  A
N2308      O2323   1.263       .  A
N2308      O2324   1.263       .  A
N2310      O2321   1.263       .  A
N2310      O2322   1.263       .  A
C2312      C2313   1.402       .  A
C2312      N2317   1.439       .  S
C2313      C2314   1.408       .  A
C2313      H2318   1.083       .  S
C2314      C2315   1.419       .  A
C2315      C2316   1.398       .  A
C2315      N2319   1.432       .  S
C2316      H2320   1.084       .  S
N2317      O2327   1.263       .  A
N2317      O2328   1.263       .  A
N2319      O2325   1.262       .  A
N2319      O2326   1.262       .  A
C2329      C2330   1.405       .  A
C2329      C2334   1.400       .  A
C2329      H2339   1.083       .  S
C2330      C2335   1.491       .  S
C2330      C2331   1.418       .  A
C2331      C2332   1.407       .  A
C2331      N2336   1.439       .  S
C2332      C2333   1.400       .  A
C2332      H2337   1.083       .  S
C2333      C2334   1.408       .  A
C2334      N2338   1.432       .  S
C2335      C2340   1.414       .  A
C2335      C2344   1.404       .  A
N2336      O2351   1.263       .  A
N2336      O2352   1.263       .  A
N2338      O2349   1.262       .  A
N2338      O2350   1.262       .  A
C2340      C2341   1.408       .  A
C2340      N2345   1.440       .  S
C2341      C2342   1.409       .  A
C2341      H2346   1.083       .  S
C2342      C2343   1.417       .  A
C2343      C2344   1.401       .  A
C2343      N2347   1.435       .  S
C2344      H2348   1.083       .  S
N2345      O2355   1.263       .  A
N2345      O2356   1.263       .  A
N2347      O2353   1.263       .  A
N2347      O2354   1.263       .  A
C2357      C2358   1.402       .  A
C2357      C2362   1.402       .  A
C2357      H2367   1.084       .  S
C2358      C2363   1.489       .  S
C2358      C2359   1.413       .  A
C2359      C2360   1.407       .  A
C2359      N2364   1.438       .  S
C2360      C2361   1.409       .  A
C2360      H2365   1.083       .  S
C2361      C2362   1.419       .  A
C2362      N2366   1.434       .  S
C2363      C2368   1.413       .  A
C2363      C2372   1.404       .  A
N2364      O2379   1.263       .  A
N2364      O2380   1.263       .  A
N2366      O2377   1.262       .  A
N2366      O2378   1.262       .  A
C2368      C2369   1.404       .  A
C2368      N2373   1.439       .  S
C2369      C2370   1.408       .  A
C2369      H2374   1.083       .  S
C2370      C2371   1.418       .  A
C2371      C2372   1.406       .  A
C2371      N2375   1.435       .  S
C2372      H2376   1.084       .  S
N2373      O2383   1.263       .  A
N2373      O2384   1.263       .  A
N2375      O2381   1.262       .  A
N2375      O2382   1.263       .  A
C2385      C2386   1.402       .  A
C2385      C2390   1.398       .  A
C2385      H2395   1.084       .  S
C2386      C2391   1.487       .  S
C2386      C2387   1.415       .  A
C2387      C2388   1.409       .  A
C2387      N2392   1.440       .  S
C2388      C2389   1.409       .  A
C2388      H2393   1.083       .  S
C2389      C2390   1.416       .  A
C2390      N2394   1.431       .  S
C2391      C2396   1.418       .  A
C2391      C2400   1.406       .  A
N2392      O2407   1.263       .  A
N2392      O2408   1.263       .  A
N2394      O2405   1.262       .  A
N2394      O2406   1.262       .  A
C2396      C2397   1.404       .  A
C2396      N2401   1.438       .  S
C2397      C2398   1.401       .  A
C2397      H2402   1.084       .  S
C2398      C2399   1.405       .  A
C2399      C2400   1.401       .  A
C2399      N2403   1.429       .  S
C2400      H2404   1.084       .  S
N2401      O2411   1.262       .  A
N2401      O2412   1.263       .  A
N2403      O2409   1.262       .  A
N2403      O2410   1.262       .  A
C2413      C2414   1.402       .  A
C2413      C2418   1.399       .  A
C2413      H2423   1.084       .  S
C2414      C2419   1.484       .  S
C2414      C2415   1.414       .  A
C2415      C2416   1.406       .  A
C2415      N2420   1.440       .  S
C2416      C2417   1.409       .  A
C2416      H2421   1.083       .  S
C2417      C2418   1.415       .  A
C2418      N2422   1.430       .  S
C2419      C2424   1.415       .  A
C2419      C2428   1.400       .  A
N2420      O2435   1.262       .  A
N2420      O2436   1.263       .  A
N2422      O2433   1.262       .  A
N2422      O2434   1.262       .  A
C2424      C2425   1.407       .  A
C2424      N2429   1.440       .  S
C2425      C2426   1.408       .  A
C2425      H2430   1.083       .  S
C2426      C2427   1.417       .  A
C2427      C2428   1.398       .  A
C2427      N2431   1.431       .  S
C2428      H2432   1.084       .  S
N2429      O2439   1.262       .  A
N2429      O2440   1.263       .  A
N2431      O2437   1.262       .  A
N2431      O2438   1.262       .  A
C2441      C2442   1.402       .  A
C2441      C2446   1.399       .  A
C2441      H2451   1.084       .  S
C2442      C2447   1.485       .  S
C2442      C2443   1.416       .  A
C2443      C2444   1.406       .  A
C2443      N2448   1.438       .  S
C2444      C2445   1.407       .  A
C2444      H2449   1.083       .  S
C2445      C2446   1.414       .  A
C2446      N2450   1.429       .  S
C2447      C2452   1.417       .  A
C2447      C2456   1.401       .  A
N2448      O2463   1.262       .  A
N2448      O2464   1.263       .  A
N2450      O2461   1.262       .  A
N2450      O2462   1.262       .  A
C2452      C2453   1.410       .  A
C2452      N2457   1.441       .  S
C2453      C2454   1.404       .  A
C2453      H2458   1.083       .  S
C2454      C2455   1.412       .  A
C2455      C2456   1.399       .  A
C2455      N2459   1.438       .  S
C2456      H2460   1.084       .  S
N2457      O2467   1.263       .  A
N2457      O2468   1.263       .  A
N2459      O2465   1.262       .  A
N2459      O2466   1.263       .  A
C2469      C2470   1.402       .  A
C2469      C2474   1.402       .  A
C2469      H2479   1.084       .  S
C2470      C2475   1.485       .  S
C2470      C2471   1.414       .  A
C2471      C2472   1.402       .  A
C2471      N2476   1.437       .  S
C2472      C2473   1.406       .  A
C2472      H2477   1.083       .  S
C2473      C2474   1.417       .  A
C2474      N2478   1.430       .  S
C2475      C2480   1.415       .  A
C2475      C2484   1.407       .  A
N2476      O2491   1.262       .  A
N2476      O2492   1.263       .  A
N2478      O2489   1.262       .  A
N2478      O2490   1.262       .  A
C2480      C2481   1.400       .  A
C2480      N2485   1.436       .  S
C2481      C2482   1.401       .  A
C2481      H2486   1.084       .  S
C2482      C2483   1.408       .  A
C2483      C2484   1.404       .  A
C2483      N2487   1.431       .  S
C2484      H2488   1.083       .  S
N2485      O2495   1.262       .  A
N2485      O2496   1.262       .  A
N2487      O2493   1.262       .  A
N2487      O2494   1.262       .  A
C2497      C2498   1.403       .  A
C2497      C2502   1.404       .  A
C2497      H2507   1.084       .  S
C2498      C2503   1.490       .  S
C2498      C2499   1.417       .  A
C2499      C2500   1.407       .  A
C2499      N2504   1.440       .  S
C2500      C2501   1.406       .  A
C2500      H2505   1.083       .  S
C2501      C2502   1.416       .  A
C2502      N2506   1.437       .  S
C2503      C2508   1.416       .  A
C2503      C2512   1.402       .  A
N2504      O2519   1.263       .  A
N2504      O2520   1.263       .  A
N2506      O2517   1.263       .  A
N2506      O2518   1.263       .  A
C2508      C2509   1.408       .  A
C2508      N2513   1.440       .  S
C2509      C2510   1.409       .  A
C2509      H2514   1.083       .  S
C2510      C2511   1.416       .  A
C2511      C2512   1.401       .  A
C2511      N2515   1.430       .  S
C2512      H2516   1.084       .  S
N2513      O2523   1.263       .  A
N2513      O2524   1.263       .  A
N2515      O2521   1.262       .  A
N2515      O2522   1.262       .  A
C2525      C2526   1.404       .  A
C2525      C2530   1.404       .  A
C2525      H2535   1.083       .  S
C2526      C2531   1.495       .  S
C2526      C2527   1.415       .  A
C2527      C2528   1.407       .  A
C2527      N2532   1.438       .  S
C2528      C2529   1.409       .  A
C2528      H2533   1.083       .  S
C2529      C2530   1.419       .  A
C2530      N2534   1.433       .  S
C2531      C2536   1.416       .  A
C2531      C2540   1.404       .  A
N2532      O2547   1.263       .  A
N2532      O2548   1.263       .  A
N2534      O2545   1.262       .  A
N2534      O2546   1.262       .  A
C2536      C2537   1.407       .  A
C2536      N2541   1.438       .  S
C2537      C2538   1.407       .  A
C2537      H2542   1.083       .  S
C2538      C2539   1.419       .  A
C2539      C2540   1.405       .  A
C2539      N2543   1.434       .  S
C2540      H2544   1.083       .  S
N2541      O2551   1.263       .  A
N2541      O2552   1.263       .  A
N2543      O2549   1.263       .  A
N2543      O2550   1.262       .  A
C2553      C2554   1.402       .  A
C2553      C2558   1.409       .  A
C2553      H2563   1.084       .  S
C2554      C2559   1.479       .  S
C2554      C2555   1.405       .  A
C2555      C2556   1.397       .  A
C2555      N2560   1.431       .  S
C2556      C2557   1.407       .  A
C2556      H2561   1.084       .  S
C2557      C2558   1.418       .  A
C2558      N2562   1.434       .  S
C2559      C2564   1.406       .  A
C2559      C2568   1.401       .  A
N2560      O2575   1.262       .  A
N2560      O2576   1.262       .  A
N2562      O2573   1.262       .  A
N2562      O2574   1.262       .  A
C2564      C2565   1.404       .  A
C2564      N2569   1.429       .  S
C2565      C2566   1.406       .  A
C2565      H2570   1.084       .  S
C2566      C2567   1.415       .  A
C2567      C2568   1.402       .  A
C2567      N2571   1.436       .  S
C2568      H2572   1.084       .  S
N2569      O2579   1.262       .  A
N2569      O2580   1.262       .  A
N2571      O2577   1.262       .  A
N2571      O2578   1.262       .  A
C2581      C2582   1.404       .  A
C2581      C2586   1.403       .  A
C2581      H2591   1.084       .  S
C2582      C2587   1.481       .  S
C2582      C2583   1.415       .  A
C2583      C2584   1.404       .  A
C2583      N2588   1.438       .  S
C2584      C2585   1.403       .  A
C2584      H2589   1.084       .  S
C2585      C2586   1.406       .  A
C2586      N2590   1.429       .  S
C2587      C2592   1.407       .  A
C2587      C2596   1.398       .  A
N2588      O2603   1.263       .  A
N2588      O2604   1.262       .  A
N2590      O2601   1.262       .  A
N2590      O2602   1.262       .  A
C2592      C2593   1.406       .  A
C2592      N2597   1.431       .  S
C2593      C2594   1.411       .  A
C2593      H2598   1.083       .  S
C2594      C2595   1.420       .  A
C2595      C2596   1.399       .  A
C2595      N2599   1.430       .  S
C2596      H2600   1.084       .  S
N2597      O2607   1.262       .  A
N2597      O2608   1.262       .  A
N2599      O2605   1.262       .  A
N2599      O2606   1.262       .  A
C2609      C2610   1.403       .  A
C2609      C2614   1.406       .  A
C2609      H2619   1.084       .  S
C2610      C2615   1.483       .  S
C2610      C2611   1.413       .  A
C2611      C2612   1.403       .  A
C2611      N2616   1.439       .  S
C2612      C2613   1.402       .  A
C2612      H2617   1.084       .  S
C2613      C2614   1.412       .  A
C2614      N2618   1.434       .  S
C2615      C2620   1.413       .  A
C2615      C2624   1.402       .  A
N2616      O2631   1.263       .  A
N2616      O2632   1.263       .  A
N2618      O2629   1.262       .  A
N2618      O2630   1.262       .  A
C2620      C2621   1.400       .  A
C2620      N2625   1.438       .  S
C2621      C2622   1.404       .  A
C2621      H2626   1.084       .  S
C2622      C2623   1.418       .  A
C2623      C2624   1.408       .  A
C2623      N2627   1.437       .  S
C2624      H2628   1.083       .  S
N2625      O2635   1.262       .  A
N2625      O2636   1.262       .  A
N2627      O2633   1.262       .  A
N2627      O2634   1.263       .  A
C2637      C2638   1.401       .  A
C2637      C2642   1.398       .  A
C2637      H2647   1.084       .  S
C2638      C2643   1.488       .  S
C2638      C2639   1.415       .  A
C2639      C2640   1.410       .  A
C2639      N2644   1.437       .  S
C2640      C2641   1.405       .  A
C2640      H2645   1.083       .  S
C2641      C2642   1.418       .  A
C2642      N2646   1.438       .  S
C2643      C2648   1.414       .  A
C2643      C2652   1.403       .  A
N2644      O2659   1.262       .  A
N2644      O2660   1.263       .  A
N2646      O2657   1.263       .  A
N2646      O2658   1.263       .  A
C2648      C2649   1.405       .  A
C2648      N2653   1.440       .  S
C2649      C2650   1.408       .  A
C2649      H2654   1.082       .  S
C2650      C2651   1.416       .  A
C2651      C2652   1.402       .  A
C2651      N2655   1.429       .  S
C2652      H2656   1.083       .  S
N2653      O2663   1.263       .  A
N2653      O2664   1.263       .  A
N2655      O2661   1.262       .  A
N2655      O2662   1.262       .  A
C2665      C2666   1.403   1_545  A
C2665      C2670   1.404       .  A
C2665      H2675   1.074       .  S
C2666      C2671   1.484       .  S
C2666      C2667   1.413       .  A
C2667      C2668   1.399       .  A
C2667      N2672   1.436       .  S
C2668      C2669   1.408       .  A
C2668      H2673   1.073       .  S
C2669      C2670   1.419   1_565  A
C2670      N2674   1.436       .  S
C2671      C2676   1.415   1_565  A
C2671      C2680   1.404       .  A
N2672      O2687   1.262       .  A
N2672      O2688   1.263       .  A
N2674      O2685   1.262       .  A
N2674      O2686   1.263       .  A
C2676      C2677   1.399       .  A
C2676      N2681   1.437       .  S
C2677      C2678   1.405   1_545  A
C2677      H2682   1.080       .  S
C2678      C2679   1.416       .  A
C2679      C2680   1.403       .  A
C2679      N2683   1.436       .  S
C2680      H2684   1.079       .  S
N2681      O2691   1.262       .  A
N2681      O2692   1.263       .  A
N2683      O2689   1.263       .  A
N2683      O2690   1.263       .  A
C2693      C2694   1.403       .  A
C2693      C2698   1.402       .  A
C2693      H2703   1.084       .  S
C2694      C2699   1.490       .  S
C2694      C2695   1.414       .  A
C2695      C2696   1.407       .  A
C2695      N2700   1.438       .  S
C2696      C2697   1.408       .  A
C2696      H2701   1.083       .  S
C2697      C2698   1.416       .  A
C2698      N2702   1.431       .  S
C2699      C2704   1.415       .  A
C2699      C2708   1.404       .  A
N2700      O2715   1.263       .  A
N2700      O2716   1.263       .  A
N2702      O2713   1.262       .  A
N2702      O2714   1.262       .  A
C2704      C2705   1.407       .  A
C2704      N2709   1.436       .  S
C2705      C2706   1.403       .  A
C2705      H2710   1.083       .  S
C2706      C2707   1.413       .  A
C2707      C2708   1.402       .  A
C2707      N2711   1.437       .  S
C2708      H2712   1.083       .  S
N2709      O2719   1.263       .  A
N2709      O2720   1.262       .  A
N2711      O2717   1.263       .  A
N2711      O2718   1.263       .  A
C2721      C2722   1.409       .  A
C2721      C2726   1.407       .  A
C2721      H2731   1.083       .  S
C2722      C2727   1.491       .  S
C2722      C2723   1.415       .  A
C2723      C2724   1.399       .  A
C2723      N2728   1.435       .  S
C2724      C2725   1.402       .  A
C2724      H2729   1.083       .  S
C2725      C2726   1.410       .  A
C2726      N2730   1.434       .  S
C2727      C2732   1.416       .  A
C2727      C2736   1.405       .  A
N2728      O2743   1.262       .  A
N2728      O2744   1.262       .  A
N2730      O2741   1.262       .  A
N2730      O2742   1.262       .  A
C2732      C2733   1.403       .  A
C2732      N2737   1.437       .  S
C2733      C2734   1.406       .  A
C2733      H2738   1.083       .  S
C2734      C2735   1.416       .  A
C2735      C2736   1.404       .  A
C2735      N2739   1.429       .  S
C2736      H2740   1.083       .  S
N2737      O2747   1.263       .  A
N2737      O2748   1.263       .  A
N2739      O2745   1.262       .  A
N2739      O2746   1.262       .  A
C2749      C2750   1.404       .  A
C2749      C2754   1.405       .  A
C2749      H2759   1.083       .  S
C2750      C2755   1.492       .  S
C2750      C2751   1.416       .  A
C2751      C2752   1.408       .  A
C2751      N2756   1.439       .  S
C2752      C2753   1.402       .  A
C2752      H2757   1.083       .  S
C2753      C2754   1.413       .  A
C2754      N2758   1.441       .  S
C2755      C2760   1.415       .  A
C2755      C2764   1.404       .  A
N2756      O2771   1.263       .  A
N2756      O2772   1.263       .  A
N2758      O2769   1.263       .  A
N2758      O2770   1.263       .  A
C2760      C2761   1.409       .  A
C2760      N2765   1.439       .  S
C2761      C2762   1.410       .  A
C2761      H2766   1.083       .  S
C2762      C2763   1.416       .  A
C2763      C2764   1.401       .  A
C2763      N2767   1.430       .  S
C2764      H2768   1.084       .  S
N2765      O2775   1.263       .  A
N2765      O2776   1.263       .  A
N2767      O2773   1.262       .  A
N2767      O2774   1.262       .  A
C2777      C2778   1.402       .  A
C2777      C2782   1.401       .  A
C2777      H2787   1.083       .  S
C2778      C2783   1.493       .  S
C2778      C2779   1.418       .  A
C2779      C2780   1.411       .  A
C2779      N2784   1.439       .  S
C2780      C2781   1.404       .  A
C2780      H2785   1.083       .  S
C2781      C2782   1.416       .  A
C2782      N2786   1.440       .  S
C2783      C2788   1.416       .  A
C2783      C2792   1.404       .  A
N2784      O2799   1.263       .  A
N2784      O2800   1.263       .  A
N2786      O2797   1.263       .  A
N2786      O2798   1.263       .  A
C2788      C2789   1.407       .  A
C2788      N2793   1.440       .  S
C2789      C2790   1.409       .  A
C2789      H2794   1.082       .  S
C2790      C2791   1.416       .  A
C2791      C2792   1.402       .  A
C2791      N2795   1.429       .  S
C2792      H2796   1.083       .  S
N2793      O2803   1.263       .  A
N2793      O2804   1.263       .  A
N2795      O2801   1.262       .  A
N2795      O2802   1.262       .  A
C2805      C2806   1.402       .  A
C2805      C2810   1.396       .  A
C2805      H2815   1.082       .  S
C2806      C2811   1.481   1_556  S
C2806      C2807   1.415   1_556  A
C2807      C2808   1.405       .  A
C2807      N2812   1.440       .  S
C2808      C2809   1.404   1_554  A
C2808      H2813   1.082       .  S
C2809      C2810   1.414       .  A
C2810      N2814   1.435       .  S
C2811      C2816   1.414   1_554  A
C2811      C2820   1.403       .  A
N2812      O2827   1.263       .  A
N2812      O2828   1.263       .  A
N2814      O2825   1.262       .  A
N2814      O2826   1.262       .  A
C2816      C2817   1.403       .  A
C2816      N2821   1.440       .  S
C2817      C2818   1.405   1_556  A
C2817      H2822   1.080       .  S
C2818      C2819   1.412       .  A
C2819      C2820   1.396       .  A
C2819      N2823   1.430       .  S
C2820      H2824   1.081       .  S
N2821      O2831   1.263       .  A
N2821      O2832   1.263       .  A
N2823      O2829   1.262       .  A
N2823      O2830   1.262       .  A
