geometry optimzed in LAMMPS
_audit_creation_date              2020-12-01 
_audit_creation_method            'lammps2cif' 
_symmetry_space_group_name_H-M    'P1' 
_symmetry_Int_Tables_number       1 
_symmetry_cell_setting            triclinic 
loop_ 
_symmetry_equiv_pos_as_xyz 
  x,y,z 
_cell_length_a                    53.93405025 
_cell_length_b                    53.94106973110813 
_cell_length_c                    18.93811533533615 
_cell_angle_alpha                 89.98735931438473 
_cell_angle_beta                  90.01551336276728 
_cell_angle_gamma                 120.08412516071463 
loop_ 
_atom_site_label 
_atom_site_type_symbol 
_atom_site_fract_x 
_atom_site_fract_y 
_atom_site_fract_z 
_atom_site_charge 
C1          C  0.33336428  0.16672209  0.11768696     0.32000
C2          C  0.33335718  0.16672063  0.97432818     0.32000
C3          C  0.34832578  0.15214472  0.08288698    -0.04200
C4          C  0.30378342  0.15172492  0.08286771    -0.05000
C5          C  0.34797746  0.19629665  0.08286292    -0.04900
C6          C  0.34836153  0.15209972  0.00930461    -0.04200
C7          C  0.30369576  0.15168506  0.00928594    -0.05000
C8          C  0.34801784  0.19637956  0.00928156    -0.04900
C9          C  0.36248546  0.13801780  0.98806556    -0.30300
N10         N  0.37083646  0.12972413  0.04682804     0.16200
C11         C  0.36236578  0.13815874  0.10495259    -0.30300
H12         H  0.36605869  0.13428272  0.15898464     0.18200
C13         C  0.27545071  0.13757705  0.98803003    -0.29200
N14         N  0.25879006  0.12923856  0.04678324     0.15000
C15         C  0.27572272  0.13770280  0.10491779    -0.29200
C16         C  0.36208341  0.22461920  0.98801942    -0.29500
N17         N  0.37037290  0.24128152  0.04676904     0.15500
H18         H  0.36607561  0.23247204  0.93422728     0.18100
C19         C  0.36195019  0.22435514  0.10490711    -0.29500
H20         H  0.36580409  0.23193220  0.15893341     0.18100
H21         H  0.26814907  0.13403644  0.15894466     0.18100
H22         H  0.36630550  0.13399625  0.93427963     0.18200
H23         H  0.26759372  0.13377783  0.93424002     0.18100
C24         C  0.33337573  0.16674053  0.47432820     0.32000
C25         C  0.33338062  0.16673943  0.61768696     0.32000
C26         C  0.34800173  0.15174129  0.50930423    -0.04200
C27         C  0.34841328  0.19639964  0.50928471    -0.05000
C28         C  0.30371444  0.15208142  0.50928323    -0.04900
C29         C  0.34795994  0.15178004  0.58288656    -0.04200
C30         C  0.34837671  0.19631527  0.58286664    -0.05000
C31         C  0.30380091  0.15212499  0.58286446    -0.04900
C32         C  0.36194507  0.13773915  0.60495160    -0.30300
N33         N  0.37037628  0.12926532  0.54682660     0.16200
C34         C  0.36208094  0.13761478  0.48806449    -0.30300
H35         H  0.36609668  0.13378910  0.43427838     0.18200
C36         C  0.36239848  0.22437352  0.60491432    -0.29200
N37         N  0.37085945  0.24130150  0.54677873     0.15000
C38         C  0.36251891  0.22464010  0.48802676    -0.29200
C39         C  0.27574007  0.13814962  0.60491183    -0.29500
N40         N  0.25880867  0.12972240  0.54677546     0.15500
H41         H  0.26816482  0.13429536  0.65893854     0.18100
C42         C  0.27546999  0.13801126  0.48802395    -0.29500
H43         H  0.26761325  0.13401385  0.43423278     0.18100
H44         H  0.36631378  0.23249342  0.43423622     0.18100
H45         H  0.36582001  0.13404493  0.65898345     0.18200
H46         H  0.36606549  0.23194869  0.65894107     0.18100
C47         C  0.16638779  0.33365119  0.02567057     0.32000
C48         C  0.16638066  0.33364957  0.88231180     0.32000
C49         C  0.15138325  0.34827189  0.99069400    -0.04200
C50         C  0.19604921  0.34868696  0.99071279    -0.05000
C51         C  0.15172731  0.30399222  0.99071738    -0.04900
C52         C  0.15141900  0.34822681  0.91711161    -0.04200
C53         C  0.19596153  0.34864698  0.91713104    -0.05000
C54         C  0.15176764  0.30407506  0.91713606    -0.04900
C55         C  0.13737896  0.36221273  0.89504576    -0.30300
N56         N  0.12890827  0.37064739  0.95317033     0.16200
C57         C  0.13725936  0.36235387  0.01193283    -0.30300
H58         H  0.13343941  0.36637556  0.06571891     0.18200
C59         C  0.22402224  0.36266914  0.89508091    -0.29200
N60         N  0.24095491  0.37113357  0.95321545     0.15000
C61         C  0.22429426  0.36279506  0.01196868    -0.29200
C62         C  0.13779488  0.27601656  0.89509203    -0.29500
N63         N  0.12937223  0.25909024  0.95323016     0.15500
H64         H  0.13394090  0.26843944  0.84106579     0.18100
C65         C  0.13766180  0.27575259  0.01197979    -0.29500
H66         H  0.13366966  0.26789982  0.06577172     0.18100
H67         H  0.23215125  0.36659424  0.06575867     0.18100
H68         H  0.13368610  0.36608870  0.84101388     0.18200
H69         H  0.23159587  0.36633537  0.84105405     0.18100
C70         C  0.16636476  0.33363112  0.38231175     0.32000
C71         C  0.16636969  0.33362990  0.52567053     0.32000
C72         C  0.15178529  0.34859033  0.41711235    -0.04200
C73         C  0.15136877  0.30405525  0.41713192    -0.05000
C74         C  0.19594449  0.34824564  0.41713429    -0.04900
C75         C  0.15174356  0.34862903  0.49069469    -0.04200
C76         C  0.15133226  0.30397083  0.49071384    -0.05000
C77         C  0.19603096  0.34828916  0.49071549    -0.04900
C78         C  0.13766438  0.36275550  0.51193468    -0.30300
N79         N  0.12936894  0.37110498  0.45317285     0.16200
C80         C  0.13780011  0.36263123  0.39504757    -0.30300
H81         H  0.13392517  0.36632558  0.34101592     0.18200
C82         C  0.13722668  0.27573038  0.51197177    -0.29200
N83         N  0.12888613  0.25906899  0.45321975     0.15000
C84         C  0.13734704  0.27599699  0.39508420    -0.29200
C85         C  0.22427540  0.36235935  0.51197494    -0.29500
N86         N  0.24093673  0.37064826  0.45322341     0.15500
H87         H  0.23213209  0.36635668  0.56576591     0.18100
C88         C  0.22400536  0.36222102  0.39508702    -0.29500
H89         H  0.23158063  0.36607526  0.34106031     0.18100
H90         H  0.13368001  0.26842184  0.34105747     0.18100
H91         H  0.13364876  0.36658123  0.56572113     0.18200
H92         H  0.13343189  0.26787710  0.56576219     0.18100
O93         O  0.03676006  0.48804103  0.04854640    -0.86400
C94         C  0.04408412  0.04341473  0.89227014     0.89700
Mg95       Mg  0.00519740  0.44335631  0.04572553     1.58100
O96         O  0.01210705  0.04926203  0.04860290    -0.86100
O97         O  0.04950363  0.02504605  0.11752445    -0.73400
C98         C  0.38321460  0.43848442  0.96434248     0.94700
O99         O  0.02464588  0.47545547  0.88239992    -0.73200
O100        O  0.39577680  0.42410777  0.95564759    -0.80700
Mg101      Mg  0.06207462  0.00560281  0.95418752     1.58000
C102        C  0.43830516  0.05510726  0.03578190     0.94600
O103        O  0.10355752  0.03608362  0.01386758    -0.79000
H104        H  0.01375893  0.05635383  0.15256061    -0.04300
C105        C  0.45666100  0.50115087  0.89233904     0.89600
O106        O  0.47509149  0.45058750  0.11756661    -0.73500
O107        O  0.04897045  0.03712053  0.95137763    -0.86300
O108        O  0.46410999  0.06798468  0.01398224    -0.79100
C109        C  0.05493518  0.11682264  0.96430184     0.94800
C110        C  0.11653042  0.06188747  0.03565565     0.94600
Mg111      Mg  0.43767035  0.49476898  0.04581031     1.58000
O112        O  0.39618753  0.46428826  0.98613048    -0.79000
O113        O  0.47509902  0.02491624  0.11759827    -0.73300
O114        O  0.06779982  0.10390558  0.98605809    -0.79100
O115        O  0.07583772  0.47223745  0.95550879    -0.80800
O116        O  0.43194512  0.39646620  0.01394043    -0.79100
C117        C  0.50093595  0.04436793  0.10772625     0.89000
O118        O  0.45077445  0.46325123  0.04862049    -0.86300
O119        O  0.46298492  0.01233081  0.95145147    -0.86400
O120        O  0.45024131  0.47532568  0.88247365    -0.73400
Mg121      Mg  0.05678472  0.06243899  0.04572876     1.58000
O122        O  0.02795901  0.10420218  0.95561484    -0.80800
H123        H  0.04225893  0.48641526  0.15249160    -0.04500
O124        O  0.48763790  0.45110969  0.95139528    -0.86100
H125        H  0.48598605  0.44401799  0.84743759    -0.04300
H126        H  0.44368844  0.45776732  0.15257763    -0.04500
C127        C  0.99880893  0.45600378  0.89227188     0.89000
C128        C  0.04308397  0.99922086  0.10765892     0.89600
C129        C  0.45566085  0.45695714  0.10772804     0.89700
H130        H  0.45748627  0.01395660  0.84750606    -0.04500
O131        O  0.02465349  0.04978439  0.88243159    -0.73500
Mg132      Mg  0.44296026  0.43793279  0.95426947     1.58000
H133        H  0.05605661  0.04260466  0.84742059    -0.04500
C134        C  0.06143979  0.44526449  0.96421617     0.94600
O135        O  0.47178595  0.39616964  0.04438369    -0.80800
C136        C  0.44480978  0.38354916  0.03569667     0.94700
O137        O  0.10396820  0.07626409  0.04435055    -0.80700
Mg138      Mg  0.49454759  0.05701553  0.95427263     1.58200
O139        O  0.03563496  0.43238712  0.98601585    -0.79100
O140        O  0.42390728  0.02813431  0.04448945    -0.80800
O141        O  0.48771901  0.03706216  0.45145531    -0.86400
C142        C  0.04311232  0.04439679  0.60772281     0.89700
Mg143      Mg  0.44302861  0.00550236  0.45428200     1.58100
O144        O  0.04895645  0.01242117  0.45138941    -0.86100
O145        O  0.02472605  0.04980353  0.38247320    -0.73400
C146        C  0.43817446  0.38354280  0.53565695     0.94700
O147        O  0.47514157  0.02495501  0.61760401    -0.73200
O148        O  0.42379312  0.39610019  0.54435790    -0.80700
Mg149      Mg  0.00528763  0.06237672  0.54581398     1.58000
C150        C  0.05480356  0.43862812  0.46421277     0.94600
O151        O  0.03576539  0.10385328  0.48613581    -0.79000
H152        H  0.05604336  0.01406874  0.34743124    -0.04300
C153        C  0.50084831  0.45698811  0.60765941     0.89600
O154        O  0.45025858  0.47539864  0.38243928    -0.73500
O155        O  0.03681150  0.04927760  0.54861720    -0.86300
O156        O  0.06768610  0.46443102  0.48600947    -0.79100
C157        C  0.11652564  0.05525148  0.53569244     0.94800
C158        C  0.06157097  0.11682767  0.46434312     0.94600
Mg159      Mg  0.49445780  0.43799384  0.45418623     1.58000
O160        O  0.46398003  0.39651724  0.51386421    -0.79000
O161        O  0.02460378  0.47541537  0.38239583    -0.73300
O162        O  0.10360287  0.06811057  0.51393753    -0.79100
O163        O  0.47191835  0.07613593  0.54449644    -0.80800
O164        O  0.39614256  0.43225999  0.48606228    -0.79100
C165        C  0.04405867  0.50124933  0.39226608     0.89000
O166        O  0.46293386  0.45109284  0.45138306    -0.86300
O167        O  0.01202645  0.46330839  0.54854504    -0.86400
O168        O  0.47501930  0.45056687  0.61752708    -0.73400
Mg169      Mg  0.06212951  0.05709196  0.45426452     1.58000
O170        O  0.10390843  0.02827883  0.54437241    -0.80800
H171        H  0.48608676  0.04255295  0.34750975    -0.04500
O172        O  0.45078893  0.48794923  0.54861068    -0.86100
H173        H  0.44370229  0.48630172  0.65256882    -0.04300
H174        H  0.45744124  0.44400026  0.34742668    -0.04500
C175        C  0.45568668  0.99912101  0.60773399     0.89000
C176        C  0.99889705  0.04338234  0.39234082     0.89600
C177        C  0.45663303  0.45597362  0.39227750     0.89700
H178        H  0.01365870  0.45781768  0.65249067    -0.04500
O179        O  0.04948675  0.02497175  0.61756097    -0.73500
Mg180      Mg  0.43761584  0.44327847  0.54573568     1.58000
H181        H  0.04230412  0.05637011  0.65257354    -0.04500
C182        C  0.44494181  0.06174233  0.53578751     0.94600
O183        O  0.39583695  0.47209173  0.45562781    -0.80800
C184        C  0.38321977  0.44511907  0.46430746     0.94700
O185        O  0.07595229  0.10427024  0.45564235    -0.80700
Mg186      Mg  0.05671680  0.49486812  0.54571817     1.58200
O187        O  0.43205927  0.03593942  0.51399082    -0.79100
O188        O  0.02782703  0.42423454  0.45550383    -0.80800
C189        C  0.11420137  0.22903713  0.45221140    -0.16500
C190        C  0.10172461  0.20321382  0.45056254     0.07500
C191        C  0.08737670  0.17297069  0.44984603     0.09400
C192        C  0.07538750  0.14718936  0.45300473    -0.17400
C193        C  0.35284794  0.42857739  0.45299466    -0.16500
C194        C  0.32705723  0.41485319  0.44984597     0.07500
C195        C  0.29680439  0.39908423  0.45056642     0.09400
C196        C  0.27097452  0.38585920  0.45221575    -0.17400
C197        C  0.11411924  0.38585342  0.45214666    -0.16500
C198        C  0.10085990  0.39838938  0.45048344     0.07500
C199        C  0.08505891  0.41280025  0.44974917     0.09400
C200        C  0.07132511  0.42482106  0.45289108    -0.17400
C201        C  0.11416862  0.22905599  0.95222617    -0.16500
C202        C  0.10095088  0.20322905  0.95057844     0.07500
C203        C  0.08519109  0.17297943  0.94985511     0.09400
C204        C  0.07147347  0.14719144  0.95299775    -0.17400
C205        C  0.27099046  0.38582423  0.95220463    -0.16500
C206        C  0.29681699  0.39830806  0.95055459     0.07500
C207        C  0.32706399  0.41266629  0.94983985     0.09400
C208        C  0.35284888  0.42466354  0.95300172    -0.17400
C209        C  0.07524223  0.42873931  0.95288864    -0.16500
C210        C  0.08725101  0.41499429  0.94974460     0.07500
C211        C  0.10164535  0.39917744  0.95047872     0.09400
C212        C  0.11416970  0.38590681  0.95214278    -0.17400
C213        C  0.16637412  0.33362991  0.60315382    -0.16500
C214        C  0.16637684  0.33363429  0.66677970     0.07500
C215        C  0.16637841  0.33364122  0.74125054     0.09400
C216        C  0.16637895  0.33364627  0.80486032    -0.17400
C217        C  0.16636662  0.33363197  0.30486029    -0.16500
C218        C  0.16637439  0.33363654  0.24125053     0.07500
C219        C  0.16638507  0.33364385  0.16677973     0.09400
C220        C  0.16639048  0.33364911  0.10315386    -0.17400
C221        C  0.42842025  0.07554938  0.54710910    -0.16500
C222        C  0.41468643  0.08757016  0.55025071     0.07500
C223        C  0.39888544  0.10198104  0.54951633     0.09400
C224        C  0.38562607  0.11451697  0.54785305    -0.17400
C225        C  0.38554420  0.27133335  0.54778717    -0.16500
C226        C  0.39802096  0.29715665  0.54943623     0.07500
C227        C  0.41236881  0.32739975  0.55015320     0.09400
C228        C  0.42435794  0.35318109  0.54699499    -0.17400
C229        C  0.14689747  0.07179311  0.54700498    -0.16500
C230        C  0.17268819  0.08551728  0.55015337     0.07500
C231        C  0.20294100  0.10128633  0.54943280     0.09400
C232        C  0.22877088  0.11451142  0.54778332    -0.17400
C233        C  0.42450266  0.07163239  0.04710921    -0.16500
C234        C  0.41249384  0.08537736  0.05025345     0.07500
C235        C  0.39809938  0.10119408  0.04951947     0.09400
C236        C  0.38557497  0.11446466  0.04785542    -0.17400
C237        C  0.38557649  0.27131579  0.04777313    -0.16500
C238        C  0.39879423  0.29714275  0.04942071     0.07500
C239        C  0.41455403  0.32739238  0.05014369     0.09400
C240        C  0.42827157  0.35318037  0.04700085    -0.17400
C241        C  0.22875451  0.11454786  0.04779406    -0.16500
C242        C  0.20292798  0.10206390  0.04944413     0.07500
C243        C  0.17268099  0.08770561  0.05015876     0.09400
C244        C  0.14689612  0.07570838  0.04699657    -0.17400
C245        C  0.33335450  0.16672262  0.89684486    -0.16500
C246        C  0.33335998  0.16672767  0.83321898     0.07500
C247        C  0.33337094  0.16673463  0.75874816     0.09400
C248        C  0.33337879  0.16673877  0.69513841    -0.17400
C249        C  0.33337128  0.16674054  0.39684490    -0.16500
C250        C  0.33336851  0.16673651  0.33321902     0.07500
C251        C  0.33336678  0.16673003  0.25874819     0.09400
C252        C  0.33336605  0.16672524  0.19513842    -0.17400
C253        C  0.33336429  0.66672211  0.11768667     0.32000
C254        C  0.33335719  0.66672066  0.97432789     0.32000
C255        C  0.34832581  0.65214477  0.08288672    -0.04200
C256        C  0.30378343  0.65172488  0.08286735    -0.05000
C257        C  0.34797744  0.69629668  0.08286257    -0.04900
C258        C  0.34836156  0.65209977  0.00930435    -0.04200
C259        C  0.30369577  0.65168502  0.00928560    -0.05000
C260        C  0.34801780  0.69637961  0.00928122    -0.04900
C261        C  0.36248543  0.63801779  0.98806530    -0.30300
N262        N  0.37083651  0.62972420  0.04682767     0.16200
C263        C  0.36236582  0.63815877  0.10495239    -0.30300
H264        H  0.36605868  0.63428272  0.15898414     0.18200
C265        C  0.27545071  0.63757701  0.98802956    -0.29200
N266        N  0.25879007  0.62923846  0.04678286     0.15000
C267        C  0.27572270  0.63770274  0.10491741    -0.29200
C268        C  0.36208343  0.72461926  0.98801892    -0.29500
N269        N  0.37037304  0.74128155  0.04676865     0.15500
H270        H  0.36607558  0.73247209  0.93422700     0.18100
C271        C  0.36195033  0.72435518  0.10490671    -0.29500
H272        H  0.36580433  0.73193229  0.15893289     0.18100
H273        H  0.26814904  0.63403641  0.15894424     0.18100
H274        H  0.36630543  0.63399621  0.93427922     0.18200
H275        H  0.26759379  0.63377791  0.93423974     0.18100
C276        C  0.33337574  0.66674054  0.47432789     0.32000
C277        C  0.33338066  0.66673948  0.61768669     0.32000
C278        C  0.34800182  0.65174138  0.50930388    -0.04200
C279        C  0.34841325  0.69639964  0.50928439    -0.05000
C280        C  0.30371446  0.65208141  0.50928297    -0.04900
C281        C  0.34796007  0.65178016  0.58288624    -0.04200
C282        C  0.34837668  0.69631529  0.58286633    -0.05000
C283        C  0.30380093  0.65212501  0.58286416    -0.04900
C284        C  0.36194513  0.63773916  0.60495123    -0.30300
N285        N  0.37037621  0.62926524  0.54682611     0.16200
C286        C  0.36208089  0.63761475  0.48806406    -0.30300
H287        H  0.36609653  0.63378896  0.43427787     0.18200
C288        C  0.36239845  0.72437354  0.60491397    -0.29200
N289        N  0.37085942  0.74130149  0.54677834     0.15000
C290        C  0.36251894  0.72464007  0.48802642    -0.29200
C291        C  0.27574005  0.63814960  0.60491152    -0.29500
N292        N  0.25880867  0.62972230  0.54677503     0.15500
H293        H  0.26816480  0.63429537  0.65893798     0.18100
C294        C  0.27547002  0.63801117  0.48802364    -0.29500
H295        H  0.26761333  0.63401377  0.43423236     0.18100
H296        H  0.36631387  0.73249337  0.43423584     0.18100
H297        H  0.36582006  0.63404489  0.65898295     0.18200
H298        H  0.36606552  0.73194873  0.65894066     0.18100
C299        C  0.16638782  0.83365120  0.02567027     0.32000
C300        C  0.16638072  0.83364966  0.88231149     0.32000
C301        C  0.15138336  0.84827200  0.99069373    -0.04200
C302        C  0.19604924  0.84868693  0.99071251    -0.05000
C303        C  0.15172729  0.80399224  0.99071700    -0.04900
C304        C  0.15141912  0.84822695  0.91711132    -0.04200
C305        C  0.19596157  0.84864704  0.91713077    -0.05000
C306        C  0.15176762  0.80407511  0.91713569    -0.04900
C307        C  0.13737907  0.86221286  0.89504556    -0.30300
N308        N  0.12890833  0.87064746  0.95317005     0.16200
C309        C  0.13725936  0.86235388  0.01193260    -0.30300
H310        H  0.13343930  0.86637548  0.06571855     0.18200
C311        C  0.22402228  0.86266923  0.89508066    -0.29200
N312        N  0.24095494  0.87113351  0.95321516     0.15000
C313        C  0.22429431  0.86279501  0.01196849    -0.29200
C314        C  0.13779484  0.77601658  0.89509168    -0.29500
N315        N  0.12937218  0.75909025  0.95322979     0.15500
H316        H  0.13394085  0.76843942  0.84106551     0.18100
C317        C  0.13766176  0.77575260  0.01197940    -0.29500
H318        H  0.13366964  0.76789983  0.06577136     0.18100
H319        H  0.23215128  0.86659419  0.06575826     0.18100
H320        H  0.13368618  0.86608886  0.84101354     0.18200
H321        H  0.23159591  0.86633550  0.84105376     0.18100
C322        C  0.16636478  0.83363111  0.38231150     0.32000
C323        C  0.16636970  0.83362993  0.52567030     0.32000
C324        C  0.15178534  0.84859036  0.41711209    -0.04200
C325        C  0.15136881  0.80405525  0.41713178    -0.05000
C326        C  0.19594452  0.84824562  0.41713402    -0.04900
C327        C  0.15174358  0.84862907  0.49069439    -0.04200
C328        C  0.15133225  0.80397085  0.49071371    -0.05000
C329        C  0.19603099  0.84828911  0.49071524    -0.04900
C330        C  0.13766436  0.86275553  0.51193438    -0.30300
N331        N  0.12936898  0.87110503  0.45317246     0.16200
C332        C  0.13780016  0.86263128  0.39504718    -0.30300
H333        H  0.13392523  0.86632558  0.34101572     0.18200
C334        C  0.13722662  0.77573037  0.51197163    -0.29200
N335        N  0.12888607  0.75906899  0.45321954     0.15000
C336        C  0.13734706  0.77599701  0.39508405    -0.29200
C337        C  0.22427542  0.86235932  0.51197454    -0.29500
N338        N  0.24093676  0.87064834  0.45322313     0.15500
H339        H  0.23213215  0.86635666  0.56576580     0.18100
C340        C  0.22400539  0.86222113  0.39508664    -0.29500
H341        H  0.23158064  0.86607545  0.34106015     0.18100
H342        H  0.13368004  0.76842189  0.34105726     0.18100
H343        H  0.13364868  0.86658122  0.56572054     0.18200
H344        H  0.13343179  0.76787706  0.56576197     0.18100
O345        O  0.03676004  0.98804098  0.04854637    -0.86400
C346        C  0.04408413  0.54341471  0.89227011     0.89700
Mg347      Mg  0.00519743  0.94335630  0.04572544     1.58100
O348        O  0.01210709  0.54926197  0.04860277    -0.86100
O349        O  0.04950378  0.52504614  0.11752444    -0.73400
C350        C  0.38321457  0.93848438  0.96434242     0.94700
O351        O  0.02464595  0.97545551  0.88239983    -0.73200
O352        O  0.39577674  0.92410771  0.95564760    -0.80700
Mg353      Mg  0.06207459  0.50560278  0.95418758     1.58000
C354        C  0.43830519  0.55510726  0.03578163     0.94600
O355        O  0.10355748  0.53608351  0.01386751    -0.79000
H356        H  0.01375899  0.55635388  0.15256048    -0.04300
C357        C  0.45666101  0.00115091  0.89233892     0.89600
O358        O  0.47509144  0.95058739  0.11756642    -0.73500
O359        O  0.04897048  0.53712055  0.95137764    -0.86300
O360        O  0.46411000  0.56798458  0.01398182    -0.79100
C361        C  0.05493519  0.61682263  0.96430150     0.94800
C362        C  0.11653044  0.56188740  0.03565535     0.94600
Mg363      Mg  0.43767039  0.99476899  0.04581050     1.58000
O364        O  0.39618750  0.96428822  0.98613059    -0.79000
O365        O  0.47509896  0.52491632  0.11759790    -0.73300
O366        O  0.06779979  0.60390553  0.98605777    -0.79100
O367        O  0.07583773  0.97223746  0.95550837    -0.80800
O368        O  0.43194520  0.89646624  0.01394004    -0.79100
C369        C  0.50093591  0.54436799  0.10772593     0.89000
O370        O  0.45077446  0.96325123  0.04862041    -0.86300
O371        O  0.46298496  0.51233079  0.95145154    -0.86400
O372        O  0.45024127  0.97532570  0.88247348    -0.73400
Mg373      Mg  0.05678477  0.56243899  0.04572863     1.58000
O374        O  0.02795902  0.60420220  0.95561447    -0.80800
H375        H  0.04225880  0.98641517  0.15249160    -0.04500
O376        O  0.48763792  0.95110982  0.95139524    -0.86100
H377        H  0.48598604  0.94401806  0.84743751    -0.04300
H378        H  0.44368840  0.95776721  0.15257749    -0.04500
C379        C  0.99880901  0.95600382  0.89227195     0.89000
C380        C  0.04308408  0.49922094  0.10765892     0.89600
C381        C  0.45566082  0.95695706  0.10772791     0.89700
H382        H  0.45748614  0.51395652  0.84750623    -0.04500
O383        O  0.02465349  0.54978434  0.88243151    -0.73500
Mg384      Mg  0.44296024  0.93793280  0.95426934     1.58000
H385        H  0.05605656  0.54260458  0.84742056    -0.04500
C386        C  0.06143979  0.94526451  0.96421602     0.94600
O387        O  0.47178599  0.89616964  0.04438337    -0.80800
C388        C  0.44480983  0.88354918  0.03569632     0.94700
O389        O  0.10396827  0.57626408  0.04435008    -0.80700
Mg390      Mg  0.49454759  0.55701549  0.95427246     1.58200
O391        O  0.03563500  0.93238719  0.98601590    -0.79100
O392        O  0.42390725  0.52813431  0.04448925    -0.80800
O393        O  0.48771899  0.53706211  0.45145503    -0.86400
C394        C  0.04311240  0.54439687  0.60772260     0.89700
Mg395      Mg  0.44302859  0.50550233  0.45428197     1.58100
O396        O  0.04895637  0.51242114  0.45138941    -0.86100
O397        O  0.02472608  0.54980366  0.38247312    -0.73400
C398        C  0.43817440  0.88354278  0.53565653     0.94700
O399        O  0.47514158  0.52495510  0.61760399    -0.73200
O400        O  0.42379305  0.89610018  0.54435732    -0.80700
Mg401      Mg  0.00528768  0.56237670  0.54581388     1.58000
C402        C  0.05480352  0.93862810  0.46421277     0.94600
O403        O  0.03576546  0.60385324  0.48613569    -0.79000
H404        H  0.05604332  0.51406871  0.34743127    -0.04300
C405        C  0.50084834  0.95698802  0.60765934     0.89600
O406        O  0.45025864  0.97539868  0.38243925    -0.73500
O407        O  0.03681155  0.54927766  0.54861710    -0.86300
O408        O  0.06768609  0.96443102  0.48600935    -0.79100
C409        C  0.11652565  0.55525144  0.53569233     0.94800
C410        C  0.06157101  0.61682768  0.46434285     0.94600
Mg411      Mg  0.49445779  0.93799380  0.45418603     1.58000
O412        O  0.46398000  0.89651721  0.51386405    -0.79000
O413        O  0.02460391  0.97541537  0.38239582    -0.73300
O414        O  0.10360284  0.56811050  0.51393749    -0.79100
O415        O  0.47191829  0.57613595  0.54449636    -0.80800
O416        O  0.39614253  0.93225996  0.48606221    -0.79100
C417        C  0.04405875  0.00124936  0.39226606     0.89000
O418        O  0.46293398  0.95109294  0.45138299    -0.86300
O419        O  0.01202641  0.96330831  0.54854499    -0.86400
O420        O  0.47501932  0.95056680  0.61752709    -0.73400
Mg421      Mg  0.06212951  0.55709197  0.45426442     1.58000
O422        O  0.10390849  0.52827878  0.54437203    -0.80800
H423        H  0.48608688  0.54255290  0.34750921    -0.04500
O424        O  0.45078886  0.98794920  0.54861064    -0.86100
H425        H  0.44370220  0.98630165  0.65256876    -0.04300
H426        H  0.45744128  0.94400024  0.34742670    -0.04500
C427        C  0.45568674  0.49912107  0.60773401     0.89000
C428        C  0.99889706  0.54338242  0.39234068     0.89600
C429        C  0.45663311  0.95597367  0.39227746     0.89700
H430        H  0.01365861  0.95781758  0.65249063    -0.04500
O431        O  0.04948679  0.52497182  0.61756084    -0.73500
Mg432      Mg  0.43761585  0.94327847  0.54573543     1.58000
H433        H  0.04230424  0.55637032  0.65257357    -0.04500
C434        C  0.44494176  0.56174231  0.53578741     0.94600
O435        O  0.39583692  0.97209170  0.45562778    -0.80800
C436        C  0.38321973  0.94511904  0.46430746     0.94700
O437        O  0.07595238  0.60427030  0.45564194    -0.80700
Mg438      Mg  0.05671679  0.99486809  0.54571825     1.58200
O439        O  0.43205925  0.53593939  0.51399085    -0.79100
O440        O  0.02782700  0.92423451  0.45550383    -0.80800
C441        C  0.11420132  0.72903713  0.45221100    -0.16500
C442        C  0.10172455  0.70321381  0.45056199     0.07500
C443        C  0.08737665  0.67297069  0.44984561     0.09400
C444        C  0.07538747  0.64718936  0.45300451    -0.17400
C445        C  0.35284793  0.92857737  0.45299468    -0.16500
C446        C  0.32705723  0.91485319  0.44984586     0.07500
C447        C  0.29680442  0.89908427  0.45056598     0.09400
C448        C  0.27097455  0.88585929  0.45221533    -0.17400
C449        C  0.11411918  0.88585338  0.45214629    -0.16500
C450        C  0.10085980  0.89838930  0.45048331     0.07500
C451        C  0.08505881  0.91280019  0.44974919     0.09400
C452        C  0.07132505  0.92482103  0.45289112    -0.17400
C453        C  0.11416857  0.72905599  0.95222572    -0.16500
C454        C  0.10095083  0.70322903  0.95057802     0.07500
C455        C  0.08519104  0.67297942  0.94985491     0.09400
C456        C  0.07147347  0.64719143  0.95299745    -0.17400
C457        C  0.27099049  0.88582415  0.95220434    -0.16500
C458        C  0.29681702  0.89830803  0.95055436     0.07500
C459        C  0.32706401  0.91266632  0.94983939     0.09400
C460        C  0.35284888  0.92466355  0.95300129    -0.17400
C461        C  0.07524219  0.92873928  0.95288865    -0.16500
C462        C  0.08725100  0.91499430  0.94974463     0.07500
C463        C  0.10164544  0.89917755  0.95047859     0.09400
C464        C  0.11416983  0.88590694  0.95214250    -0.17400
C465        C  0.16637414  0.83362997  0.60315359    -0.16500
C466        C  0.16637688  0.83363426  0.66677946     0.07500
C467        C  0.16637842  0.83364119  0.74125027     0.09400
C468        C  0.16637905  0.83364637  0.80486003    -0.17400
C469        C  0.16636657  0.83363189  0.30486001    -0.16500
C470        C  0.16637436  0.83363650  0.24125024     0.07500
C471        C  0.16638516  0.83364391  0.16677942     0.09400
C472        C  0.16639053  0.83364912  0.10315355    -0.17400
C473        C  0.42842017  0.57554932  0.54710882    -0.16500
C474        C  0.41468634  0.58757009  0.55025050     0.07500
C475        C  0.39888537  0.60198096  0.54951590     0.09400
C476        C  0.38562599  0.61451687  0.54785252    -0.17400
C477        C  0.38554420  0.77133334  0.54778668    -0.16500
C478        C  0.39802102  0.79715664  0.54943568     0.07500
C479        C  0.41236879  0.82739974  0.55015268     0.09400
C480        C  0.42435787  0.85318107  0.54699450    -0.17400
C481        C  0.14689745  0.57179313  0.54700503    -0.16500
C482        C  0.17268817  0.58551728  0.55015340     0.07500
C483        C  0.20294099  0.60128630  0.54943266     0.09400
C484        C  0.22877086  0.61451136  0.54778291    -0.17400
C485        C  0.42450279  0.57163250  0.04710900    -0.16500
C486        C  0.41249395  0.58537746  0.05025302     0.07500
C487        C  0.39809948  0.60119419  0.04951891     0.09400
C488        C  0.38557509  0.61446479  0.04785498    -0.17400
C489        C  0.38557658  0.77131580  0.04777292    -0.16500
C490        C  0.39879422  0.79714276  0.04942063     0.07500
C491        C  0.41455397  0.82739238  0.05014325     0.09400
C492        C  0.42827157  0.85318036  0.04700037    -0.17400
C493        C  0.22875453  0.61454782  0.04779371    -0.16500
C494        C  0.20292801  0.60206397  0.04944371     0.07500
C495        C  0.17268102  0.58770561  0.05015834     0.09400
C496        C  0.14689614  0.57570827  0.04699633    -0.17400
C497        C  0.33335453  0.66672268  0.89684461    -0.16500
C498        C  0.33336003  0.66672763  0.83321874     0.07500
C499        C  0.33337092  0.66673459  0.75874794     0.09400
C500        C  0.33337882  0.66673882  0.69513817    -0.17400
C501        C  0.33337123  0.66674052  0.39684459    -0.16500
C502        C  0.33336843  0.66673644  0.33321872     0.07500
C503        C  0.33336669  0.66672996  0.25874789     0.09400
C504        C  0.33336598  0.66672520  0.19513813    -0.17400
C505        C  0.83336432  0.16672209  0.11768718     0.32000
C506        C  0.83335720  0.16672063  0.97432835     0.32000
C507        C  0.84832578  0.15214471  0.08288714    -0.04200
C508        C  0.80378345  0.15172493  0.08286793    -0.05000
C509        C  0.84797752  0.19629664  0.08286305    -0.04900
C510        C  0.84836155  0.15209972  0.00930480    -0.04200
C511        C  0.80369579  0.15168505  0.00928618    -0.05000
C512        C  0.84801786  0.19637957  0.00928170    -0.04900
C513        C  0.86248549  0.13801782  0.98806567    -0.30300
N514        N  0.87083645  0.12972413  0.04682815     0.16200
C515        C  0.86236579  0.13815873  0.10495281    -0.30300
H516        H  0.86605871  0.13428275  0.15898457     0.18200
C517        C  0.77545074  0.13757702  0.98803012    -0.29200
N518        N  0.75879008  0.12923853  0.04678338     0.15000
C519        C  0.77572272  0.13770281  0.10491796    -0.29200
C520        C  0.86208340  0.22461922  0.98801946    -0.29500
N521        N  0.87037298  0.24128153  0.04676917     0.15500
H522        H  0.86607552  0.23247203  0.93422745     0.18100
C523        C  0.86195028  0.22435513  0.10490720    -0.29500
H524        H  0.86580419  0.23193219  0.15893349     0.18100
H525        H  0.76814906  0.13403647  0.15894473     0.18100
H526        H  0.86630555  0.13399631  0.93427987     0.18200
H527        H  0.76759384  0.13377784  0.93424025     0.18100
C528        C  0.83337572  0.16674054  0.47432838     0.32000
C529        C  0.83338063  0.16673944  0.61768714     0.32000
C530        C  0.84800171  0.15174129  0.50930435    -0.04200
C531        C  0.84841333  0.19639965  0.50928489    -0.05000
C532        C  0.80371445  0.15208146  0.50928345    -0.04900
C533        C  0.84795996  0.15178006  0.58288671    -0.04200
C534        C  0.84837678  0.19631528  0.58286680    -0.05000
C535        C  0.80380091  0.15212503  0.58286464    -0.04900
C536        C  0.86194510  0.13773916  0.60495173    -0.30300
N537        N  0.87037624  0.12926529  0.54682664     0.16200
C538        C  0.86208088  0.13761476  0.48806457    -0.30300
H539        H  0.86609659  0.13378903  0.43427838     0.18200
C540        C  0.86239855  0.22437355  0.60491452    -0.29200
N541        N  0.87085945  0.24130152  0.54677885     0.15000
C542        C  0.86251894  0.22464010  0.48802695    -0.29200
C543        C  0.77574005  0.13814964  0.60491204    -0.29500
N544        N  0.75880868  0.12972237  0.54677554     0.15500
H545        H  0.76816479  0.13429539  0.65893854     0.18100
C546        C  0.77547003  0.13801124  0.48802414    -0.29500
H547        H  0.76761331  0.13401378  0.43423284     0.18100
H548        H  0.86631379  0.23249341  0.43423637     0.18100
H549        H  0.86582006  0.13404493  0.65898351     0.18200
H550        H  0.86606560  0.23194870  0.65894107     0.18100
C551        C  0.66638778  0.33365119  0.02567081     0.32000
C552        C  0.66638070  0.33364958  0.88231201     0.32000
C553        C  0.65138328  0.34827192  0.99069424    -0.04200
C554        C  0.69604922  0.34868694  0.99071303    -0.05000
C555        C  0.65172728  0.30399222  0.99071758    -0.04900
C556        C  0.65141903  0.34822683  0.91711185    -0.04200
C557        C  0.69596156  0.34864696  0.91713128    -0.05000
C558        C  0.65176767  0.30407507  0.91713627    -0.04900
C559        C  0.63737894  0.36221270  0.89504607    -0.30300
N560        N  0.62890823  0.37064734  0.95317054     0.16200
C561        C  0.63725933  0.36235385  0.01193317    -0.30300
H562        H  0.63343938  0.36637554  0.06571896     0.18200
C563        C  0.72402228  0.36266911  0.89508119    -0.29200
N564        N  0.74095493  0.37113354  0.95321570     0.15000
C565        C  0.72429430  0.36279509  0.01196902    -0.29200
C566        C  0.63779498  0.27601658  0.89509222    -0.29500
N567        N  0.62937227  0.25909025  0.95323029     0.15500
H568        H  0.63394103  0.26843946  0.84106596     0.18100
C569        C  0.63766173  0.27575257  0.01197995    -0.29500
H570        H  0.63366951  0.26789978  0.06577183     0.18100
H571        H  0.73215126  0.36659431  0.06575880     0.18100
H572        H  0.63368606  0.36608870  0.84101404     0.18200
H573        H  0.73159593  0.36633535  0.84105429     0.18100
C574        C  0.66636475  0.33363112  0.38231205     0.32000
C575        C  0.66636966  0.33362991  0.52567082     0.32000
C576        C  0.65178530  0.34859035  0.41711265    -0.04200
C577        C  0.65136877  0.30405526  0.41713230    -0.05000
C578        C  0.69594447  0.34824564  0.41713456    -0.04900
C579        C  0.65174353  0.34862904  0.49069497    -0.04200
C580        C  0.65133221  0.30397083  0.49071422    -0.05000
C581        C  0.69603095  0.34828915  0.49071576    -0.04900
C582        C  0.63766430  0.36275550  0.51193492    -0.30300
N583        N  0.62936890  0.37110496  0.45317292     0.16200
C584        C  0.63780013  0.36263124  0.39504777    -0.30300
H585        H  0.63392524  0.36632557  0.34101604     0.18200
C586        C  0.63722661  0.27573035  0.51197214    -0.29200
N587        N  0.62888617  0.25906900  0.45322003     0.15000
C588        C  0.63734706  0.27599702  0.39508456    -0.29200
C589        C  0.72427538  0.36235934  0.51197505    -0.29500
N590        N  0.74093671  0.37064825  0.45322363     0.15500
H591        H  0.73213211  0.36635673  0.56576631     0.18100
C592        C  0.72400533  0.36222103  0.39508716    -0.29500
H593        H  0.73158057  0.36607528  0.34106065     0.18100
H594        H  0.63368001  0.26842190  0.34105776     0.18100
H595        H  0.63364866  0.36658125  0.56572103     0.18200
H596        H  0.63343175  0.26787704  0.56576247     0.18100
O597        O  0.53676002  0.48804103  0.04854657    -0.86400
C598        C  0.54408418  0.04341478  0.89227014     0.89700
Mg599      Mg  0.50519739  0.44335631  0.04572567     1.58100
O600        O  0.51210705  0.04926200  0.04860294    -0.86100
O601        O  0.54950366  0.02504606  0.11752441    -0.73400
C602        C  0.88321455  0.43848444  0.96434283     0.94700
O603        O  0.52464589  0.47545551  0.88239987    -0.73200
O604        O  0.89577672  0.42410776  0.95564811    -0.80700
Mg605      Mg  0.56207459  0.00560283  0.95418760     1.58000
C606        C  0.93830518  0.05510727  0.03578192     0.94600
O607        O  0.60355749  0.03608362  0.01386758    -0.79000
H608        H  0.51375886  0.05635370  0.15256071    -0.04300
C609        C  0.95666099  0.50115089  0.89233905     0.89600
O610        O  0.97509156  0.45058750  0.11756663    -0.73500
O611        O  0.54897049  0.03712060  0.95137768    -0.86300
O612        O  0.96411001  0.06798463  0.01398230    -0.79100
C613        C  0.55493515  0.11682266  0.96430203     0.94800
C614        C  0.61653042  0.06188745  0.03565575     0.94600
Mg615      Mg  0.93767040  0.49476904  0.04581054     1.58000
O616        O  0.89618750  0.46428832  0.98613066    -0.79000
O617        O  0.97509903  0.02491632  0.11759833    -0.73300
O618        O  0.56779979  0.10390560  0.98605825    -0.79100
O619        O  0.57583764  0.47223741  0.95550878    -0.80800
O620        O  0.93194514  0.39646621  0.01394035    -0.79100
C621        C  0.00093597  0.04436801  0.10772622     0.89000
O622        O  0.95077454  0.46325128  0.04862056    -0.86300
O623        O  0.96298491  0.01233079  0.95145159    -0.86400
O624        O  0.95024123  0.47532566  0.88247371    -0.73400
Mg625      Mg  0.55678473  0.06243902  0.04572881     1.58000
O626        O  0.52795899  0.10420219  0.95561491    -0.80800
H627        H  0.54225885  0.48641531  0.15249189    -0.04500
O628        O  0.98763784  0.45110972  0.95139522    -0.86100
H629        H  0.98598603  0.44401805  0.84743751    -0.04300
H630        H  0.94368849  0.45776730  0.15257774    -0.04500
C631        C  0.49880897  0.45600376  0.89227192     0.89000
C632        C  0.54308395  0.99922085  0.10765895     0.89600
C633        C  0.95566093  0.45695714  0.10772804     0.89700
H634        H  0.95748612  0.01395649  0.84750630    -0.04500
O635        O  0.52465356  0.04978444  0.88243147    -0.73500
Mg636      Mg  0.94296019  0.43793279  0.95426954     1.58000
H637        H  0.55605665  0.04260462  0.84742064    -0.04500
C638        C  0.56143973  0.44526447  0.96421636     0.94600
O639        O  0.97178594  0.39616962  0.04438374    -0.80800
C640        C  0.94480978  0.38354916  0.03569666     0.94700
O641        O  0.60396825  0.07626412  0.04435057    -0.80700
Mg642      Mg  0.99454754  0.05701547  0.95427263     1.58200
O643        O  0.53563494  0.43238712  0.98601623    -0.79100
O644        O  0.92390725  0.02813433  0.04448940    -0.80800
O645        O  0.98771897  0.03706215  0.45145523    -0.86400
C646        C  0.54311241  0.04439681  0.60772282     0.89700
Mg647      Mg  0.94302859  0.00550236  0.45428199     1.58100
O648        O  0.54895648  0.01242116  0.45138956    -0.86100
O649        O  0.52472606  0.04980358  0.38247311    -0.73400
C650        C  0.93817445  0.38354281  0.53565697     0.94700
O651        O  0.97514153  0.02495514  0.61760409    -0.73200
O652        O  0.92379308  0.39610017  0.54435790    -0.80700
Mg653      Mg  0.50528767  0.06237669  0.54581406     1.58000
C654        C  0.55480360  0.43862812  0.46421277     0.94600
O655        O  0.53576546  0.10385331  0.48613613    -0.79000
H656        H  0.55604324  0.01406879  0.34743140    -0.04300
C657        C  0.00084840  0.45698811  0.60765945     0.89600
O658        O  0.95025865  0.47539869  0.38243931    -0.73500
O659        O  0.53681158  0.04927760  0.54861721    -0.86300
O660        O  0.56768617  0.46443102  0.48600948    -0.79100
C661        C  0.61652570  0.05525146  0.53569254     0.94800
C662        C  0.56157101  0.11682767  0.46434325     0.94600
Mg663      Mg  0.99445777  0.43799384  0.45418622     1.58000
O664        O  0.96398001  0.39651727  0.51386419    -0.79000
O665        O  0.52460386  0.47541539  0.38239590    -0.73300
O666        O  0.60360293  0.06811058  0.51393789    -0.79100
O667        O  0.97191835  0.07613596  0.54449643    -0.80800
O668        O  0.89614260  0.43226002  0.48606244    -0.79100
C669        C  0.54405876  0.50124936  0.39226621     0.89000
O670        O  0.96293388  0.45109285  0.45138308    -0.86300
O671        O  0.51202642  0.46330840  0.54854506    -0.86400
O672        O  0.97501937  0.45056685  0.61752709    -0.73400
Mg673      Mg  0.56212957  0.05709196  0.45426459     1.58000
O674        O  0.60390848  0.02827880  0.54437238    -0.80800
H675        H  0.98608674  0.04255269  0.34750953    -0.04500
O676        O  0.95078897  0.48794924  0.54861084    -0.86100
H677        H  0.94370225  0.48630182  0.65256897    -0.04300
H678        H  0.95744109  0.44400016  0.34742684    -0.04500
C679        C  0.95568670  0.99912111  0.60773401     0.89000
C680        C  0.49889707  0.04338245  0.39234089     0.89600
C681        C  0.95663300  0.45597359  0.39227749     0.89700
H682        H  0.51365862  0.45781767  0.65249076    -0.04500
O683        O  0.54948682  0.02497175  0.61756099    -0.73500
Mg684      Mg  0.93761589  0.44327846  0.54573572     1.58000
H685        H  0.54230423  0.05637014  0.65257353    -0.04500
C686        C  0.94494181  0.06174234  0.53578751     0.94600
O687        O  0.89583695  0.47209175  0.45562791    -0.80800
C688        C  0.88321977  0.44511909  0.46430773     0.94700
O689        O  0.57595230  0.10427022  0.45564237    -0.80700
Mg690      Mg  0.55671683  0.49486810  0.54571831     1.58200
O691        O  0.93205928  0.03593943  0.51399083    -0.79100
O692        O  0.52782706  0.42423456  0.45550386    -0.80800
C693        C  0.61420141  0.22903713  0.45221150    -0.16500
C694        C  0.60172455  0.20321382  0.45056253     0.07500
C695        C  0.58737663  0.17297068  0.44984603     0.09400
C696        C  0.57538753  0.14718935  0.45300476    -0.17400
C697        C  0.85284793  0.42857736  0.45299516    -0.16500
C698        C  0.82705722  0.41485315  0.44984642     0.07500
C699        C  0.79680439  0.39908427  0.45056651     0.09400
C700        C  0.77097451  0.38585923  0.45221582    -0.17400
C701        C  0.61411918  0.38585338  0.45214677    -0.16500
C702        C  0.60085987  0.39838935  0.45048375     0.07500
C703        C  0.58505894  0.41280028  0.44974927     0.09400
C704        C  0.57132512  0.42482106  0.45289105    -0.17400
C705        C  0.61416862  0.22905600  0.95222621    -0.16500
C706        C  0.60095090  0.20322906  0.95057854     0.07500
C707        C  0.58519103  0.17297944  0.94985543     0.09400
C708        C  0.57147340  0.14719145  0.95299799    -0.17400
C709        C  0.77099048  0.38582422  0.95220491    -0.16500
C710        C  0.79681700  0.39830807  0.95055489     0.07500
C711        C  0.82706397  0.41266627  0.94983993     0.09400
C712        C  0.85284885  0.42466356  0.95300183    -0.17400
C713        C  0.57524219  0.42873928  0.95288896    -0.16500
C714        C  0.58725103  0.41499432  0.94974484     0.07500
C715        C  0.60164540  0.39917750  0.95047901     0.09400
C716        C  0.61416973  0.38590683  0.95214300    -0.17400
C717        C  0.66637417  0.33362992  0.60315406    -0.16500
C718        C  0.66637689  0.33363429  0.66677992     0.07500
C719        C  0.66637839  0.33364122  0.74125072     0.09400
C720        C  0.66637898  0.33364628  0.80486050    -0.17400
C721        C  0.66636660  0.33363195  0.30486054    -0.16500
C722        C  0.66637445  0.33363653  0.24125077     0.07500
C723        C  0.66638512  0.33364385  0.16677996     0.09400
C724        C  0.66639047  0.33364911  0.10315408    -0.17400
C725        C  0.92842022  0.07554936  0.54710922    -0.16500
C726        C  0.91468639  0.08757015  0.55025104     0.07500
C727        C  0.89888544  0.10198106  0.54951643     0.09400
C728        C  0.88562603  0.11451695  0.54785305    -0.17400
C729        C  0.88554427  0.27133337  0.54778722    -0.16500
C730        C  0.89802103  0.29715667  0.54943621     0.07500
C731        C  0.91236880  0.32739978  0.55015321     0.09400
C732        C  0.92435797  0.35318112  0.54699502    -0.17400
C733        C  0.64689753  0.07179310  0.54700514    -0.16500
C734        C  0.67268824  0.08551732  0.55015370     0.07500
C735        C  0.70294104  0.10128632  0.54943289     0.09400
C736        C  0.72877090  0.11451138  0.54778332    -0.17400
C737        C  0.92450271  0.07163244  0.04710921    -0.16500
C738        C  0.91249382  0.08537734  0.05025343     0.07500
C739        C  0.89809935  0.10119405  0.04951946     0.09400
C740        C  0.88557498  0.11446466  0.04785549    -0.17400
C741        C  0.88557653  0.27131579  0.04777346    -0.16500
C742        C  0.89879418  0.29714275  0.04942116     0.07500
C743        C  0.91455393  0.32739238  0.05014379     0.09400
C744        C  0.92827152  0.35318037  0.04700084    -0.17400
C745        C  0.72875453  0.11454785  0.04779422    -0.16500
C746        C  0.70292800  0.10206394  0.04944423     0.07500
C747        C  0.67268099  0.08770564  0.05015888     0.09400
C748        C  0.64689611  0.07570832  0.04699686    -0.17400
C749        C  0.83335446  0.16672261  0.89684503    -0.16500
C750        C  0.83336000  0.16672766  0.83321915     0.07500
C751        C  0.83337089  0.16673463  0.75874833     0.09400
C752        C  0.83337875  0.16673876  0.69513857    -0.17400
C753        C  0.83337120  0.16674055  0.39684511    -0.16500
C754        C  0.83336845  0.16673651  0.33321924     0.07500
C755        C  0.83336684  0.16673003  0.25874842     0.09400
C756        C  0.83336611  0.16672524  0.19513865    -0.17400
C757        C  0.83336432  0.66672211  0.11768686     0.32000
C758        C  0.83335719  0.66672066  0.97432808     0.32000
C759        C  0.84832582  0.65214476  0.08288681    -0.04200
C760        C  0.80378345  0.65172489  0.08286760    -0.05000
C761        C  0.84797748  0.69629668  0.08286281    -0.04900
C762        C  0.84836156  0.65209975  0.00930445    -0.04200
C763        C  0.80369578  0.65168503  0.00928586    -0.05000
C764        C  0.84801784  0.69637961  0.00928147    -0.04900
C765        C  0.86248547  0.63801780  0.98806540    -0.30300
N766        N  0.87083653  0.62972421  0.04682783     0.16200
C767        C  0.86236581  0.63815876  0.10495248    -0.30300
H768        H  0.86605865  0.63428269  0.15898432     0.18200
C769        C  0.77545072  0.63757700  0.98802987    -0.29200
N770        N  0.75879007  0.62923848  0.04678315     0.15000
C771        C  0.77572272  0.63770272  0.10491767    -0.29200
C772        C  0.86208338  0.72461927  0.98801920    -0.29500
N773        N  0.87037294  0.74128155  0.04676893     0.15500
H774        H  0.86607552  0.73247210  0.93422737     0.18100
C775        C  0.86195025  0.72435518  0.10490697    -0.29500
H776        H  0.86580419  0.73193228  0.15893316     0.18100
H777        H  0.76814906  0.63403637  0.15894453     0.18100
H778        H  0.86630548  0.63399621  0.93427938     0.18200
H779        H  0.76759376  0.63377785  0.93424011     0.18100
C780        C  0.83337573  0.66674053  0.47432812     0.32000
C781        C  0.83338064  0.66673947  0.61768690     0.32000
C782        C  0.84800178  0.65174134  0.50930412    -0.04200
C783        C  0.84841327  0.69639963  0.50928463    -0.05000
C784        C  0.80371445  0.65208144  0.50928316    -0.04900
C785        C  0.84796001  0.65178011  0.58288646    -0.04200
C786        C  0.84837674  0.69631529  0.58286655    -0.05000
C787        C  0.80380092  0.65212502  0.58286436    -0.04900
C788        C  0.86194509  0.63773913  0.60495146    -0.30300
N789        N  0.87037626  0.62926527  0.54682639     0.16200
C790        C  0.86208092  0.63761476  0.48806434    -0.30300
H791        H  0.86609659  0.63378899  0.43427820     0.18200
C792        C  0.86239853  0.72437355  0.60491415    -0.29200
N793        N  0.87085950  0.74130150  0.54677856     0.15000
C794        C  0.86251892  0.72464008  0.48802655    -0.29200
C795        C  0.77574006  0.63814958  0.60491168    -0.29500
N796        N  0.75880867  0.62972232  0.54677530     0.15500
H797        H  0.76816480  0.63429531  0.65893837     0.18100
C798        C  0.77547000  0.63801121  0.48802378    -0.29500
H799        H  0.76761329  0.63401381  0.43423277     0.18100
H800        H  0.86631370  0.73249333  0.43423620     0.18100
H801        H  0.86582000  0.63404486  0.65898314     0.18200
H802        H  0.86606556  0.73194874  0.65894091     0.18100
C803        C  0.66638779  0.83365120  0.02567051     0.32000
C804        C  0.66638071  0.83364965  0.88231169     0.32000
C805        C  0.65138329  0.84827196  0.99069393    -0.04200
C806        C  0.69604921  0.84868696  0.99071274    -0.05000
C807        C  0.65172731  0.80399225  0.99071725    -0.04900
C808        C  0.65141908  0.84822692  0.91711152    -0.04200
C809        C  0.69596157  0.84864705  0.91713097    -0.05000
C810        C  0.65176769  0.80407512  0.91713594    -0.04900
C811        C  0.63737902  0.86221284  0.89504565    -0.30300
N812        N  0.62890832  0.87064748  0.95317021     0.16200
C813        C  0.63725930  0.86235387  0.01193276    -0.30300
H814        H  0.63343922  0.86637546  0.06571868     0.18200
C815        C  0.72402229  0.86266921  0.89508092    -0.29200
N816        N  0.74095492  0.87113354  0.95321552     0.15000
C817        C  0.72429426  0.86279504  0.01196870    -0.29200
C818        C  0.63779493  0.77601659  0.89509182    -0.29500
N819        N  0.62937224  0.75909025  0.95323001     0.15500
H820        H  0.63394098  0.76843947  0.84106588     0.18100
C821        C  0.63766174  0.77575260  0.01197960    -0.29500
H822        H  0.63366954  0.76789981  0.06577161     0.18100
H823        H  0.73215121  0.86659422  0.06575873     0.18100
H824        H  0.63368616  0.86608881  0.84101378     0.18200
H825        H  0.73159597  0.86633546  0.84105412     0.18100
C826        C  0.66636477  0.83363110  0.38231169     0.32000
C827        C  0.66636968  0.83362991  0.52567043     0.32000
C828        C  0.65178533  0.84859035  0.41711227    -0.04200
C829        C  0.65136873  0.80405525  0.41713186    -0.05000
C830        C  0.69594451  0.84824560  0.41713418    -0.04900
C831        C  0.65174356  0.84862906  0.49069461    -0.04200
C832        C  0.65133221  0.80397084  0.49071378    -0.05000
C833        C  0.69603096  0.84828911  0.49071538    -0.04900
C834        C  0.63766438  0.86275555  0.51193451    -0.30300
N835        N  0.62936903  0.87110508  0.45317260     0.16200
C836        C  0.63780021  0.86263130  0.39504741    -0.30300
H837        H  0.63392530  0.86632563  0.34101569     0.18200
C838        C  0.63722668  0.77573038  0.51197169    -0.29200
N839        N  0.62888614  0.75906899  0.45321964     0.15000
C840        C  0.63734699  0.77599700  0.39508412    -0.29200
C841        C  0.72427539  0.86235935  0.51197478    -0.29500
N842        N  0.74093676  0.87064836  0.45322339     0.15500
H843        H  0.73213207  0.86635668  0.56576605     0.18100
C844        C  0.72400540  0.86222110  0.39508693    -0.29500
H845        H  0.73158068  0.86607541  0.34106024     0.18100
H846        H  0.63367993  0.76842187  0.34105731     0.18100
H847        H  0.63364869  0.86658126  0.56572091     0.18200
H848        H  0.63343190  0.76787709  0.56576203     0.18100
O849        O  0.53676004  0.98804097  0.04854641    -0.86400
C850        C  0.54408414  0.54341470  0.89227010     0.89700
Mg851      Mg  0.50519740  0.94335630  0.04572545     1.58100
O852        O  0.51210704  0.54926200  0.04860271    -0.86100
O853        O  0.54950368  0.52504615  0.11752451    -0.73400
C854        C  0.88321452  0.93848439  0.96434252     0.94700
O855        O  0.52464595  0.97545548  0.88239987    -0.73200
O856        O  0.89577669  0.92410772  0.95564760    -0.80700
Mg857      Mg  0.56207458  0.50560278  0.95418764     1.58000
C858        C  0.93830515  0.55510726  0.03578180     0.94600
O859        O  0.60355743  0.53608354  0.01386759    -0.79000
H860        H  0.51375880  0.55635381  0.15256044    -0.04300
C861        C  0.95666097  0.00115088  0.89233905     0.89600
O862        O  0.97509151  0.95058741  0.11756631    -0.73500
O863        O  0.54897054  0.53712058  0.95137762    -0.86300
O864        O  0.96410994  0.56798457  0.01398189    -0.79100
C865        C  0.55493519  0.61682263  0.96430162     0.94800
C866        C  0.61653036  0.56188740  0.03565567     0.94600
Mg867      Mg  0.93767036  0.99476901  0.04581053     1.58000
O868        O  0.89618746  0.96428824  0.98613060    -0.79000
O869        O  0.97509909  0.52491637  0.11759824    -0.73300
O870        O  0.56779978  0.60390556  0.98605807    -0.79100
O871        O  0.57583772  0.97223749  0.95550871    -0.80800
O872        O  0.93194516  0.89646624  0.01394009    -0.79100
C873        C  0.00093603  0.54436801  0.10772607     0.89000
O874        O  0.95077442  0.96325121  0.04862051    -0.86300
O875        O  0.96298495  0.51233082  0.95145155    -0.86400
O876        O  0.95024129  0.97532568  0.88247370    -0.73400
Mg877      Mg  0.55678470  0.56243899  0.04572874     1.58000
O878        O  0.52795903  0.60420219  0.95561448    -0.80800
H879        H  0.54225867  0.98641513  0.15249171    -0.04500
O880        O  0.98763793  0.95110979  0.95139527    -0.86100
H881        H  0.98598605  0.94401801  0.84743756    -0.04300
H882        H  0.94368854  0.95776728  0.15257768    -0.04500
C883        C  0.49880899  0.95600384  0.89227193     0.89000
C884        C  0.54308399  0.49922095  0.10765907     0.89600
C885        C  0.95566089  0.95695709  0.10772796     0.89700
H886        H  0.95748623  0.51395656  0.84750621    -0.04500
O887        O  0.52465350  0.54978435  0.88243157    -0.73500
Mg888      Mg  0.94296022  0.93793279  0.95426940     1.58000
H889        H  0.55605655  0.54260453  0.84742050    -0.04500
C890        C  0.56143981  0.94526453  0.96421617     0.94600
O891        O  0.97178597  0.89616962  0.04438333    -0.80800
C892        C  0.94480979  0.88354917  0.03569643     0.94700
O893        O  0.60396817  0.57626405  0.04435059    -0.80700
Mg894      Mg  0.99454760  0.55701549  0.95427250     1.58200
O895        O  0.53563499  0.93238715  0.98601593    -0.79100
O896        O  0.92390720  0.52813431  0.04448946    -0.80800
O897        O  0.98771898  0.53706216  0.45145506    -0.86400
C898        C  0.54311237  0.54439684  0.60772280     0.89700
Mg899      Mg  0.94302865  0.50550238  0.45428202     1.58100
O900        O  0.54895645  0.51242114  0.45138959    -0.86100
O901        O  0.52472615  0.54980365  0.38247316    -0.73400
C902        C  0.93817444  0.88354278  0.53565654     0.94700
O903        O  0.97514163  0.52495511  0.61760408    -0.73200
O904        O  0.92379308  0.89610017  0.54435746    -0.80700
Mg905      Mg  0.50528762  0.56237671  0.54581389     1.58000
C906        C  0.55480361  0.93862815  0.46421277     0.94600
O907        O  0.53576537  0.60385327  0.48613563    -0.79000
H908        H  0.55604339  0.51406877  0.34743157    -0.04300
C909        C  0.00084833  0.95698804  0.60765940     0.89600
O910        O  0.95025859  0.97539866  0.38243926    -0.73500
O911        O  0.53681157  0.54927767  0.54861723    -0.86300
O912        O  0.56768613  0.96443106  0.48600940    -0.79100
C913        C  0.61652567  0.55525145  0.53569244     0.94800
C914        C  0.56157096  0.61682767  0.46434296     0.94600
Mg915      Mg  0.99445780  0.93799381  0.45418604     1.58000
O916        O  0.96398003  0.89651723  0.51386397    -0.79000
O917        O  0.52460383  0.97541540  0.38239591    -0.73300
O918        O  0.60360287  0.56811051  0.51393752    -0.79100
O919        O  0.97191839  0.57613597  0.54449639    -0.80800
O920        O  0.89614260  0.93225996  0.48606228    -0.79100
C921        C  0.54405870  0.00124937  0.39226618     0.89000
O922        O  0.96293398  0.95109295  0.45138304    -0.86300
O923        O  0.51202640  0.96330834  0.54854492    -0.86400
O924        O  0.97501931  0.95056683  0.61752707    -0.73400
Mg925      Mg  0.56212955  0.55709196  0.45426455     1.58000
O926        O  0.60390847  0.52827880  0.54437241    -0.80800
H927        H  0.98608680  0.54255288  0.34750932    -0.04500
O928        O  0.95078898  0.98794930  0.54861065    -0.86100
H929        H  0.94370221  0.98630178  0.65256867    -0.04300
H930        H  0.95744134  0.94400031  0.34742664    -0.04500
C931        C  0.95568676  0.49912110  0.60773416     0.89000
C932        C  0.49889714  0.54338242  0.39234071     0.89600
C933        C  0.95663310  0.95597369  0.39227751     0.89700
H934        H  0.51365866  0.95781755  0.65249049    -0.04500
O935        O  0.54948684  0.52497183  0.61756094    -0.73500
Mg936      Mg  0.93761590  0.94327850  0.54573559     1.58000
H937        H  0.54230411  0.55637014  0.65257367    -0.04500
C938        C  0.94494185  0.56174233  0.53578753     0.94600
O939        O  0.89583696  0.97209168  0.45562782    -0.80800
C940        C  0.88321980  0.94511902  0.46430746     0.94700
O941        O  0.57595232  0.60427027  0.45564232    -0.80700
Mg942      Mg  0.55671680  0.99486808  0.54571828     1.58200
O943        O  0.93205934  0.53593942  0.51399088    -0.79100
O944        O  0.52782708  0.92423452  0.45550383    -0.80800
C945        C  0.61420136  0.72903713  0.45221133    -0.16500
C946        C  0.60172453  0.70321381  0.45056255     0.07500
C947        C  0.58737670  0.67297070  0.44984604     0.09400
C948        C  0.57538750  0.64718936  0.45300465    -0.17400
C949        C  0.85284798  0.92857736  0.45299466    -0.16500
C950        C  0.82705727  0.91485323  0.44984597     0.07500
C951        C  0.79680444  0.89908425  0.45056643     0.09400
C952        C  0.77097457  0.88585927  0.45221578    -0.17400
C953        C  0.61411920  0.88585339  0.45214633    -0.16500
C954        C  0.60085982  0.89838931  0.45048331     0.07500
C955        C  0.58505899  0.91280034  0.44974918     0.09400
C956        C  0.57132521  0.92482117  0.45289108    -0.17400
C957        C  0.61416866  0.72905599  0.95222582    -0.16500
C958        C  0.60095092  0.70322903  0.95057802     0.07500
C959        C  0.58519109  0.67297941  0.94985490     0.09400
C960        C  0.57147346  0.64719142  0.95299747    -0.17400
C961        C  0.77099046  0.88582415  0.95220472    -0.16500
C962        C  0.79681697  0.89830800  0.95055460     0.07500
C963        C  0.82706395  0.91266632  0.94983983     0.09400
C964        C  0.85284882  0.92466354  0.95300172    -0.17400
C965        C  0.57524224  0.92873933  0.95288865    -0.16500
C966        C  0.58725100  0.91499430  0.94974461     0.07500
C967        C  0.60164544  0.89917755  0.95047871     0.09400
C968        C  0.61416981  0.88590695  0.95214270    -0.17400
C969        C  0.66637417  0.83362996  0.60315373    -0.16500
C970        C  0.66637682  0.83363426  0.66677962     0.07500
C971        C  0.66637832  0.83364119  0.74125046     0.09400
C972        C  0.66637900  0.83364636  0.80486023    -0.17400
C973        C  0.66636663  0.83363191  0.30486028    -0.16500
C974        C  0.66637442  0.83363651  0.24125053     0.07500
C975        C  0.66638514  0.83364391  0.16677972     0.09400
C976        C  0.66639052  0.83364912  0.10315384    -0.17400
C977        C  0.92842026  0.57554932  0.54710913    -0.16500
C978        C  0.91468643  0.58757010  0.55025061     0.07500
C979        C  0.89888544  0.60198098  0.54951600     0.09400
C980        C  0.88562605  0.61451690  0.54785282    -0.17400
C981        C  0.88554423  0.77133334  0.54778690    -0.16500
C982        C  0.89802099  0.79715664  0.54943612     0.07500
C983        C  0.91236885  0.82739974  0.55015311     0.09400
C984        C  0.92435795  0.85318107  0.54699462    -0.17400
C985        C  0.64689749  0.57179312  0.54700512    -0.16500
C986        C  0.67268821  0.58551725  0.55015371     0.07500
C987        C  0.70294102  0.60128626  0.54943279     0.09400
C988        C  0.72877089  0.61451134  0.54778308    -0.17400
C989        C  0.92450276  0.57163249  0.04710909    -0.16500
C990        C  0.91249397  0.58537750  0.05025301     0.07500
C991        C  0.89809951  0.60119421  0.04951903     0.09400
C992        C  0.88557509  0.61446478  0.04785521    -0.17400
C993        C  0.88557648  0.77131580  0.04777307    -0.16500
C994        C  0.89879413  0.79714276  0.04942072     0.07500
C995        C  0.91455388  0.82739239  0.05014369     0.09400
C996        C  0.92827150  0.85318038  0.04700082    -0.17400
C997        C  0.72875451  0.61454783  0.04779387    -0.16500
C998        C  0.70292797  0.60206394  0.04944382     0.07500
C999        C  0.67268097  0.58770561  0.05015865     0.09400
C1000       C  0.64689608  0.57570829  0.04699657    -0.17400
C1001       C  0.83335448  0.66672269  0.89684481    -0.16500
C1002       C  0.83335993  0.66672764  0.83321895     0.07500
C1003       C  0.83337082  0.66673459  0.75874814     0.09400
C1004       C  0.83337874  0.66673882  0.69513838    -0.17400
C1005       C  0.83337123  0.66674052  0.39684486    -0.16500
C1006       C  0.83336840  0.66673644  0.33321898     0.07500
C1007       C  0.83336674  0.66672996  0.25874815     0.09400
C1008       C  0.83336605  0.66672520  0.19513836    -0.17400
loop_ 
_geom_bond_atom_site_label_1 
_geom_bond_atom_site_label_2 
_geom_bond_distance 
_geom_bond_site_symmetry_2 
_ccdc_geom_bond_type 
C1            C3   1.530       .  S
C1            C5   1.530       .  S
C1            C4   1.530       .  S
C1          C252   1.467       .  S
C2            C6   1.535   1_556  S
C2            C8   1.535   1_556  S
C2            C7   1.535   1_556  S
C2          C245   1.467       .  S
C3           C11   1.375       .  A
C3            C6   1.394       .  A
C4           C15   1.375       .  A
C4            C7   1.394       .  A
C5           C19   1.375       .  A
C5            C8   1.393       .  A
C6            C9   1.378   1_554  A
C7           C13   1.378   1_554  A
C8           C16   1.378   1_554  A
C9           N10   1.358   1_556  A
C9           H22   1.083       .  S
N10          C11   1.355       .  A
N10         C236   1.402       .  S
C11          H12   1.083       .  S
C13          N14   1.358   1_556  A
C13          H23   1.083       .  S
N14          C15   1.355       .  A
N14         C241   1.402       .  S
C15          H21   1.083       .  S
C16          N17   1.358   1_556  A
C16          H18   1.083       .  S
N17          C19   1.355       .  A
N17         C237   1.402       .  S
C19          H20   1.083       .  S
C24          C26   1.535       .  S
C24          C28   1.535       .  S
C24          C27   1.535       .  S
C24         C249   1.467       .  S
C25          C29   1.530       .  S
C25          C31   1.530       .  S
C25          C30   1.530       .  S
C25         C248   1.467       .  S
C26          C34   1.378       .  A
C26          C29   1.394       .  A
C27          C38   1.378       .  A
C27          C30   1.394       .  A
C28          C42   1.378       .  A
C28          C31   1.393       .  A
C29          C32   1.375       .  A
C30          C36   1.375       .  A
C31          C39   1.375       .  A
C32          N33   1.355       .  A
C32          H45   1.083       .  S
N33          C34   1.358       .  A
N33         C224   1.402       .  S
C34          H35   1.083       .  S
C36          N37   1.355       .  A
C36          H46   1.083       .  S
N37          C38   1.358       .  A
N37         C225   1.402       .  S
C38          H44   1.083       .  S
C39          N40   1.355       .  A
C39          H41   1.083       .  S
N40          C42   1.358       .  A
N40         C232   1.402       .  S
C42          H43   1.083       .  S
C47          C49   1.535   1_554  S
C47          C51   1.535   1_554  S
C47          C50   1.535   1_554  S
C47         C220   1.467       .  S
C48          C52   1.530       .  S
C48          C54   1.530       .  S
C48          C53   1.530       .  S
C48         C216   1.467       .  S
C49          C57   1.378   1_556  A
C49          C52   1.394       .  A
C50          C61   1.378   1_556  A
C50          C53   1.394       .  A
C51          C65   1.378   1_556  A
C51          C54   1.393       .  A
C52          C55   1.375       .  A
C53          C59   1.375       .  A
C54          C62   1.375       .  A
C55          N56   1.355       .  A
C55          H68   1.083       .  S
N56          C57   1.358   1_556  A
N56         C212   1.402       .  S
C57          H58   1.083       .  S
C59          N60   1.355       .  A
C59          H69   1.083       .  S
N60          C61   1.358   1_556  A
N60         C205   1.402       .  S
C61          H67   1.083       .  S
C62          N63   1.355       .  A
C62          H64   1.083       .  S
N63          C65   1.358   1_556  A
N63         C201   1.402       .  S
C65          H66   1.083       .  S
C70          C72   1.530       .  S
C70          C74   1.530       .  S
C70          C73   1.530       .  S
C70         C217   1.467       .  S
C71          C75   1.535       .  S
C71          C77   1.535       .  S
C71          C76   1.535       .  S
C71         C213   1.467       .  S
C72          C80   1.375       .  A
C72          C75   1.394       .  A
C73          C84   1.375       .  A
C73          C76   1.394       .  A
C74          C88   1.375       .  A
C74          C77   1.393       .  A
C75          C78   1.378       .  A
C76          C82   1.378       .  A
C77          C85   1.378       .  A
C78          N79   1.358       .  A
C78          H91   1.083       .  S
N79          C80   1.355       .  A
N79         C197   1.402       .  S
C80          H81   1.083       .  S
C82          N83   1.358       .  A
C82          H92   1.083       .  S
N83          C84   1.355       .  A
N83         C189   1.402       .  S
C84          H90   1.083       .  S
C85          N86   1.358       .  A
C85          H87   1.083       .  S
N86          C88   1.355       .  A
N86         C196   1.402       .  S
C88          H89   1.083       .  S
O93         Mg95   2.144       .  S
O93        Mg353   2.158   1_554  S
O93         C380   1.236       .  S
C94         H133   1.081       .  S
C94         O107   1.236       .  S
C94         O131   1.270       .  A
Mg95        O628   2.158   1_454  S
Mg95        O139   2.302   1_554  S
Mg95        O639   2.265   1_455  S
Mg95        O610   2.297   1_455  S
O96        Mg121   2.144       .  S
O96        Mg642   2.158   1_454  S
O96         C621   1.236       .  S
O97         C128   1.270   1_545  A
O97        Mg121   2.297       .  S
C98         O100   1.271       .  A
C98         O112   1.273       .  A
C98         C208   1.435       .  S
O99         C127   1.270   1_455  A
O99        Mg353   2.297       .  S
O100       Mg132   2.265       .  S
Mg101       O107   2.144       .  S
Mg101       O345   2.158   1_546  S
Mg101       O103   2.302   1_556  S
Mg101       O351   2.297   1_545  S
Mg101       O367   2.265   1_545  S
C102        O140   1.271       .  A
C102        O108   1.273       .  A
C102        C233   1.435       .  S
O103        C110   1.273       .  A
H104        C621   1.081       .  S
C105        H382   1.081       .  S
C105        O371   1.236       .  S
C105        O120   1.270       .  A
O106        C129   1.270       .  A
O106       Mg599   2.297       .  S
O107       Mg121   2.159   1_556  S
O108       Mg138   2.302   1_554  S
C109        O122   1.271       .  A
C109        O114   1.273       .  A
C109        C204   1.435       .  S
C110        O137   1.271       .  A
C110        C244   1.435       .  S
Mg111       O118   2.144       .  S
Mg111       O371   2.158   1_554  S
Mg111       O112   2.302   1_554  S
Mg111       O365   2.297       .  S
Mg111       O392   2.265       .  S
O113        C117   1.270       .  A
O113       Mg363   2.297   1_545  S
O114       Mg121   2.302   1_556  S
O115        C134   1.271       .  A
O115       Mg353   2.265       .  S
O116        C136   1.273       .  A
O116       Mg132   2.302   1_554  S
C117        H608   1.081       .  S
C117        O600   1.236       .  S
O118       Mg132   2.159   1_554  S
O118        C129   1.236       .  S
O119       Mg138   2.144       .  S
O119       Mg363   2.158   1_546  S
O119        C357   1.236       .  S
O120       Mg132   2.297       .  S
Mg121       O137   2.265       .  S
O122       Mg642   2.265   1_455  S
H123        C380   1.081       .  S
O124       Mg132   2.144       .  S
O124       Mg599   2.158   1_556  S
O124        C631   1.236       .  S
H125        C631   1.081       .  S
H126        C129   1.081       .  S
C127        H629   1.081       .  S
C127        O628   1.236       .  S
C128        H375   1.081       .  S
C128        O345   1.236       .  S
H130        C357   1.081       .  S
O131       Mg642   2.297   1_455  S
C134        O139   1.273       .  A
C134        C209   1.435       .  S
O135        C136   1.271       .  A
O135       Mg599   2.265       .  S
C136        C240   1.435       .  S
Mg138       O600   2.158   1_556  S
Mg138       O626   2.265       .  S
Mg138       O635   2.297       .  S
O140       Mg363   2.265   1_545  S
O141       Mg143   2.144       .  S
O141       Mg653   2.158       .  S
O141        C680   1.236       .  S
C142        H181   1.081       .  S
C142        O155   1.236       .  S
C142        O179   1.270       .  A
Mg143       O424   2.158   1_545  S
Mg143       O187   2.302       .  S
Mg143       O435   2.265   1_545  S
Mg143       O406   2.297   1_545  S
O144       Mg169   2.144       .  S
O144       Mg438   2.158   1_545  S
O144        C417   1.236       .  S
O145        C176   1.270   1_455  A
O145       Mg169   2.297       .  S
C146        O148   1.271       .  A
C146        O160   1.273       .  A
C146        C228   1.435       .  S
O147        C175   1.270   1_545  A
O147       Mg653   2.297       .  S
O148       Mg180   2.265       .  S
Mg149       O155   2.144       .  S
Mg149       O645   2.158   1_455  S
Mg149       O151   2.302       .  S
Mg149       O651   2.297   1_455  S
Mg149       O667   2.265   1_455  S
C150        O188   1.271       .  A
C150        O156   1.273       .  A
C150        C200   1.435       .  S
O151        C158   1.273       .  A
H152        C417   1.081       .  S
C153        H682   1.081       .  S
C153        O671   1.236       .  S
C153        O168   1.270       .  A
O154        C177   1.270       .  A
O154       Mg395   2.297       .  S
O155       Mg169   2.158       .  S
O156       Mg186   2.302       .  S
C157        O170   1.271       .  A
C157        O162   1.273       .  A
C157        C229   1.435       .  S
C158        O185   1.271       .  A
C158        C192   1.435       .  S
Mg159       O166   2.144       .  S
Mg159       O671   2.158       .  S
Mg159       O160   2.302       .  S
Mg159       O665   2.297       .  S
Mg159       O692   2.265       .  S
O161        C165   1.270       .  A
O161       Mg663   2.297   1_455  S
O162       Mg169   2.302       .  S
O163        C182   1.271       .  A
O163       Mg653   2.265       .  S
O164        C184   1.273       .  A
O164       Mg180   2.302       .  S
C165        H404   1.081       .  S
C165        O396   1.236       .  S
O166       Mg180   2.158       .  S
O166        C177   1.236       .  S
O167       Mg186   2.144       .  S
O167       Mg663   2.158   1_455  S
O167        C657   1.236       .  S
O168       Mg180   2.297       .  S
Mg169       O185   2.265       .  S
O170       Mg438   2.265   1_545  S
H171        C680   1.081       .  S
O172       Mg180   2.144       .  S
O172       Mg395   2.158       .  S
O172        C427   1.236       .  S
H173        C427   1.081       .  S
H174        C177   1.081       .  S
C175        H425   1.081       .  S
C175        O424   1.236       .  S
C176        H675   1.081       .  S
C176        O645   1.236       .  S
H178        C657   1.081       .  S
O179       Mg438   2.297   1_545  S
C182        O187   1.273       .  A
C182        C221   1.435       .  S
O183        C184   1.271       .  A
O183       Mg395   2.265       .  S
C184        C193   1.435       .  S
Mg186       O396   2.158       .  S
Mg186       O422   2.265       .  S
Mg186       O431   2.297       .  S
O188       Mg663   2.265   1_455  S
C189        C190   1.206       .  T
C190        C191   1.412       .  S
C191        C192   1.206       .  T
C193        C194   1.206       .  T
C194        C195   1.412       .  S
C195        C196   1.206       .  T
C197        C198   1.206       .  T
C198        C199   1.412       .  S
C199        C200   1.206       .  T
C201        C202   1.206       .  T
C202        C203   1.412       .  S
C203        C204   1.206       .  T
C205        C206   1.206       .  T
C206        C207   1.412       .  S
C207        C208   1.206       .  T
C209        C210   1.206       .  T
C210        C211   1.412       .  S
C211        C212   1.206       .  T
C213        C214   1.205       .  T
C214        C215   1.410       .  S
C215        C216   1.205       .  T
C217        C218   1.205       .  T
C218        C219   1.410       .  S
C219        C220   1.205       .  T
C221        C222   1.206       .  T
C222        C223   1.412       .  S
C223        C224   1.206       .  T
C225        C226   1.206       .  T
C226        C227   1.412       .  S
C227        C228   1.206       .  T
C229        C230   1.206       .  T
C230        C231   1.412       .  S
C231        C232   1.206       .  T
C233        C234   1.206       .  T
C234        C235   1.412       .  S
C235        C236   1.206       .  T
C237        C238   1.206       .  T
C238        C239   1.412       .  S
C239        C240   1.206       .  T
C241        C242   1.206       .  T
C242        C243   1.412       .  S
C243        C244   1.206       .  T
C245        C246   1.205       .  T
C246        C247   1.410       .  S
C247        C248   1.205       .  T
C249        C250   1.205       .  T
C250        C251   1.410       .  S
C251        C252   1.205       .  T
C253        C255   1.530       .  S
C253        C257   1.530       .  S
C253        C256   1.530       .  S
C253        C504   1.467       .  S
C254        C258   1.535   1_556  S
C254        C260   1.535   1_556  S
C254        C259   1.535   1_556  S
C254        C497   1.467       .  S
C255        C263   1.375       .  A
C255        C258   1.394       .  A
C256        C267   1.375       .  A
C256        C259   1.394       .  A
C257        C271   1.375       .  A
C257        C260   1.393       .  A
C258        C261   1.378   1_554  A
C259        C265   1.378   1_554  A
C260        C268   1.378   1_554  A
C261        N262   1.358   1_556  A
C261        H274   1.083       .  S
N262        C263   1.355       .  A
N262        C488   1.402       .  S
C263        H264   1.083       .  S
C265        N266   1.358   1_556  A
C265        H275   1.083       .  S
N266        C267   1.355       .  A
N266        C493   1.402       .  S
C267        H273   1.083       .  S
C268        N269   1.358   1_556  A
C268        H270   1.083       .  S
N269        C271   1.355       .  A
N269        C489   1.402       .  S
C271        H272   1.083       .  S
C276        C278   1.535       .  S
C276        C280   1.535       .  S
C276        C279   1.535       .  S
C276        C501   1.467       .  S
C277        C281   1.530       .  S
C277        C283   1.530       .  S
C277        C282   1.530       .  S
C277        C500   1.467       .  S
C278        C286   1.378       .  A
C278        C281   1.394       .  A
C279        C290   1.378       .  A
C279        C282   1.394       .  A
C280        C294   1.378       .  A
C280        C283   1.393       .  A
C281        C284   1.375       .  A
C282        C288   1.375       .  A
C283        C291   1.375       .  A
C284        N285   1.355       .  A
C284        H297   1.083       .  S
N285        C286   1.358       .  A
N285        C476   1.402       .  S
C286        H287   1.083       .  S
C288        N289   1.355       .  A
C288        H298   1.083       .  S
N289        C290   1.358       .  A
N289        C477   1.402       .  S
C290        H296   1.083       .  S
C291        N292   1.355       .  A
C291        H293   1.083       .  S
N292        C294   1.358       .  A
N292        C484   1.402       .  S
C294        H295   1.083       .  S
C299        C301   1.535   1_554  S
C299        C303   1.535   1_554  S
C299        C302   1.535   1_554  S
C299        C472   1.467       .  S
C300        C304   1.530       .  S
C300        C306   1.530       .  S
C300        C305   1.530       .  S
C300        C468   1.467       .  S
C301        C309   1.378   1_556  A
C301        C304   1.394       .  A
C302        C313   1.378   1_556  A
C302        C305   1.394       .  A
C303        C317   1.378   1_556  A
C303        C306   1.393       .  A
C304        C307   1.375       .  A
C305        C311   1.375       .  A
C306        C314   1.375       .  A
C307        N308   1.355       .  A
C307        H320   1.083       .  S
N308        C309   1.358   1_556  A
N308        C464   1.402       .  S
C309        H310   1.083       .  S
C311        N312   1.355       .  A
C311        H321   1.083       .  S
N312        C313   1.358   1_556  A
N312        C457   1.402       .  S
C313        H319   1.083       .  S
C314        N315   1.355       .  A
C314        H316   1.083       .  S
N315        C317   1.358   1_556  A
N315        C453   1.402       .  S
C317        H318   1.083       .  S
C322        C324   1.530       .  S
C322        C326   1.530       .  S
C322        C325   1.530       .  S
C322        C469   1.467       .  S
C323        C327   1.535       .  S
C323        C329   1.535       .  S
C323        C328   1.535       .  S
C323        C465   1.467       .  S
C324        C332   1.375       .  A
C324        C327   1.394       .  A
C325        C336   1.375       .  A
C325        C328   1.394       .  A
C326        C340   1.375       .  A
C326        C329   1.393       .  A
C327        C330   1.378       .  A
C328        C334   1.378       .  A
C329        C337   1.378       .  A
C330        N331   1.358       .  A
C330        H343   1.083       .  S
N331        C332   1.355       .  A
N331        C449   1.402       .  S
C332        H333   1.083       .  S
C334        N335   1.358       .  A
C334        H344   1.083       .  S
N335        C336   1.355       .  A
N335        C441   1.402       .  S
C336        H342   1.083       .  S
C337        N338   1.358       .  A
C337        H339   1.083       .  S
N338        C340   1.355       .  A
N338        C448   1.402       .  S
C340        H341   1.083       .  S
O345       Mg347   2.144       .  S
C346        H385   1.081       .  S
C346        O359   1.236       .  S
C346        O383   1.270       .  A
Mg347       O880   2.158   1_454  S
Mg347       O391   2.302   1_554  S
Mg347       O891   2.265   1_455  S
Mg347       O862   2.297   1_455  S
O348       Mg894   2.158   1_454  S
O348       Mg373   2.144       .  S
O348        C873   1.236       .  S
O349        C380   1.270       .  A
O349       Mg373   2.297       .  S
C350        O352   1.271       .  A
C350        O364   1.273       .  A
C350        C460   1.435       .  S
O351        C379   1.270   1_455  A
O352       Mg384   2.265       .  S
Mg353       O359   2.144       .  S
Mg353       O355   2.302   1_556  S
C354        O392   1.271       .  A
C354        O360   1.273       .  A
C354        C485   1.435       .  S
O355        C362   1.273       .  A
H356        C873   1.081       .  S
C357        O372   1.270   1_545  A
O358        C381   1.270       .  A
O358       Mg851   2.297       .  S
O359       Mg373   2.159   1_556  S
O360       Mg390   2.302   1_554  S
C361        O374   1.271       .  A
C361        O366   1.273       .  A
C361        C456   1.435       .  S
C362        O389   1.271       .  A
C362        C496   1.435       .  S
Mg363       O370   2.144       .  S
Mg363       O364   2.302   1_554  S
O365        C369   1.270       .  A
O366       Mg373   2.302   1_556  S
O367        C386   1.271       .  A
O368        C388   1.273       .  A
O368       Mg384   2.302   1_554  S
C369        H860   1.081       .  S
C369        O852   1.236       .  S
O370       Mg384   2.159   1_554  S
O370        C381   1.236       .  S
O371       Mg390   2.144       .  S
O372       Mg384   2.297       .  S
Mg373       O389   2.265       .  S
O374       Mg894   2.265   1_455  S
O376       Mg851   2.158   1_556  S
O376       Mg384   2.144       .  S
O376        C883   1.236       .  S
H377        C883   1.081       .  S
H378        C381   1.081       .  S
C379        H881   1.081       .  S
C379        O880   1.236       .  S
O383       Mg894   2.297   1_455  S
C386        O391   1.273       .  A
C386        C461   1.435       .  S
O387        C388   1.271       .  A
O387       Mg851   2.265       .  S
C388        C492   1.435       .  S
Mg390       O852   2.158   1_556  S
Mg390       O878   2.265       .  S
Mg390       O887   2.297       .  S
O393       Mg395   2.144       .  S
O393       Mg905   2.158       .  S
O393        C932   1.236       .  S
C394        H433   1.081       .  S
C394        O407   1.236       .  S
C394        O431   1.270       .  A
Mg395       O439   2.302       .  S
O396       Mg421   2.144       .  S
O397        C428   1.270   1_455  A
O397       Mg421   2.297       .  S
C398        O400   1.271       .  A
C398        O412   1.273       .  A
C398        C480   1.435       .  S
O399        C427   1.270       .  A
O399       Mg905   2.297       .  S
O400       Mg432   2.265       .  S
Mg401       O897   2.158   1_455  S
Mg401       O407   2.144       .  S
Mg401       O903   2.297   1_455  S
Mg401       O919   2.265   1_455  S
Mg401       O403   2.302       .  S
C402        O440   1.271       .  A
C402        O408   1.273       .  A
C402        C452   1.435       .  S
O403        C410   1.273       .  A
C405        H934   1.081       .  S
C405        O923   1.236       .  S
C405        O420   1.270       .  A
O406        C429   1.270       .  A
O407       Mg421   2.158       .  S
O408       Mg438   2.302       .  S
C409        O422   1.271       .  A
C409        O414   1.273       .  A
C409        C481   1.435       .  S
C410        O437   1.271       .  A
C410        C444   1.435       .  S
Mg411       O418   2.144       .  S
Mg411       O923   2.158       .  S
Mg411       O412   2.302       .  S
Mg411       O917   2.297       .  S
Mg411       O944   2.265       .  S
O413        C417   1.270   1_565  A
O413       Mg915   2.297   1_455  S
O414       Mg421   2.302       .  S
O415        C434   1.271       .  A
O415       Mg905   2.265       .  S
O416        C436   1.273       .  A
O416       Mg432   2.302       .  S
O418       Mg432   2.158       .  S
O418        C429   1.236       .  S
O419       Mg915   2.158   1_455  S
O419       Mg438   2.144       .  S
O419        C909   1.236       .  S
O420       Mg432   2.297       .  S
Mg421       O437   2.265       .  S
H423        C932   1.081       .  S
O424       Mg432   2.144       .  S
H426        C429   1.081       .  S
C428        H927   1.081       .  S
C428        O897   1.236       .  S
H430        C909   1.081       .  S
C434        O439   1.273       .  A
C434        C473   1.435       .  S
O435        C436   1.271       .  A
C436        C445   1.435       .  S
O440       Mg915   2.265   1_455  S
C441        C442   1.206       .  T
C442        C443   1.412       .  S
C443        C444   1.206       .  T
C445        C446   1.206       .  T
C446        C447   1.412       .  S
C447        C448   1.206       .  T
C449        C450   1.206       .  T
C450        C451   1.412       .  S
C451        C452   1.206       .  T
C453        C454   1.206       .  T
C454        C455   1.412       .  S
C455        C456   1.206       .  T
C457        C458   1.206       .  T
C458        C459   1.412       .  S
C459        C460   1.206       .  T
C461        C462   1.206       .  T
C462        C463   1.412       .  S
C463        C464   1.206       .  T
C465        C466   1.205       .  T
C466        C467   1.410       .  S
C467        C468   1.205       .  T
C469        C470   1.205       .  T
C470        C471   1.410       .  S
C471        C472   1.205       .  T
C473        C474   1.206       .  T
C474        C475   1.412       .  S
C475        C476   1.206       .  T
C477        C478   1.206       .  T
C478        C479   1.412       .  S
C479        C480   1.206       .  T
C481        C482   1.206       .  T
C482        C483   1.412       .  S
C483        C484   1.206       .  T
C485        C486   1.206       .  T
C486        C487   1.412       .  S
C487        C488   1.206       .  T
C489        C490   1.206       .  T
C490        C491   1.412       .  S
C491        C492   1.206       .  T
C493        C494   1.206       .  T
C494        C495   1.412       .  S
C495        C496   1.206       .  T
C497        C498   1.205       .  T
C498        C499   1.410       .  S
C499        C500   1.205       .  T
C501        C502   1.205       .  T
C502        C503   1.410       .  S
C503        C504   1.205       .  T
C505        C507   1.530       .  S
C505        C509   1.530       .  S
C505        C508   1.530       .  S
C505        C756   1.467       .  S
C506        C510   1.535   1_556  S
C506        C512   1.535   1_556  S
C506        C511   1.535   1_556  S
C506        C749   1.467       .  S
C507        C515   1.375       .  A
C507        C510   1.394       .  A
C508        C519   1.375       .  A
C508        C511   1.394       .  A
C509        C523   1.375       .  A
C509        C512   1.393       .  A
C510        C513   1.378   1_554  A
C511        C517   1.378   1_554  A
C512        C520   1.378   1_554  A
C513        N514   1.358   1_556  A
C513        H526   1.083       .  S
N514        C515   1.355       .  A
N514        C740   1.402       .  S
C515        H516   1.083       .  S
C517        N518   1.358   1_556  A
C517        H527   1.083       .  S
N518        C519   1.355       .  A
N518        C745   1.402       .  S
C519        H525   1.083       .  S
C520        N521   1.358   1_556  A
C520        H522   1.083       .  S
N521        C523   1.355       .  A
N521        C741   1.402       .  S
C523        H524   1.083       .  S
C528        C530   1.535       .  S
C528        C532   1.535       .  S
C528        C531   1.535       .  S
C528        C753   1.467       .  S
C529        C533   1.530       .  S
C529        C535   1.530       .  S
C529        C534   1.530       .  S
C529        C752   1.467       .  S
C530        C538   1.378       .  A
C530        C533   1.394       .  A
C531        C542   1.378       .  A
C531        C534   1.394       .  A
C532        C546   1.378       .  A
C532        C535   1.393       .  A
C533        C536   1.375       .  A
C534        C540   1.375       .  A
C535        C543   1.375       .  A
C536        N537   1.355       .  A
C536        H549   1.083       .  S
N537        C538   1.358       .  A
N537        C728   1.402       .  S
C538        H539   1.083       .  S
C540        N541   1.355       .  A
C540        H550   1.083       .  S
N541        C542   1.358       .  A
N541        C729   1.402       .  S
C542        H548   1.083       .  S
C543        N544   1.355       .  A
C543        H545   1.083       .  S
N544        C546   1.358       .  A
N544        C736   1.402       .  S
C546        H547   1.083       .  S
C551        C553   1.535   1_554  S
C551        C555   1.535   1_554  S
C551        C554   1.535   1_554  S
C551        C724   1.467       .  S
C552        C556   1.530       .  S
C552        C558   1.530       .  S
C552        C557   1.530       .  S
C552        C720   1.467       .  S
C553        C561   1.378   1_556  A
C553        C556   1.394       .  A
C554        C565   1.378   1_556  A
C554        C557   1.394       .  A
C555        C569   1.378   1_556  A
C555        C558   1.393       .  A
C556        C559   1.375       .  A
C557        C563   1.375       .  A
C558        C566   1.375       .  A
C559        N560   1.355       .  A
C559        H572   1.083       .  S
N560        C561   1.358   1_556  A
N560        C716   1.402       .  S
C561        H562   1.083       .  S
C563        N564   1.355       .  A
C563        H573   1.083       .  S
N564        C565   1.358   1_556  A
N564        C709   1.402       .  S
C565        H571   1.083       .  S
C566        N567   1.355       .  A
C566        H568   1.083       .  S
N567        C569   1.358   1_556  A
N567        C705   1.402       .  S
C569        H570   1.083       .  S
C574        C576   1.530       .  S
C574        C578   1.530       .  S
C574        C577   1.530       .  S
C574        C721   1.467       .  S
C575        C579   1.535       .  S
C575        C581   1.535       .  S
C575        C580   1.535       .  S
C575        C717   1.467       .  S
C576        C584   1.375       .  A
C576        C579   1.394       .  A
C577        C588   1.375       .  A
C577        C580   1.394       .  A
C578        C592   1.375       .  A
C578        C581   1.393       .  A
C579        C582   1.378       .  A
C580        C586   1.378       .  A
C581        C589   1.378       .  A
C582        N583   1.358       .  A
C582        H595   1.083       .  S
N583        C584   1.355       .  A
N583        C701   1.402       .  S
C584        H585   1.083       .  S
C586        N587   1.358       .  A
C586        H596   1.083       .  S
N587        C588   1.355       .  A
N587        C693   1.402       .  S
C588        H594   1.083       .  S
C589        N590   1.358       .  A
C589        H591   1.083       .  S
N590        C592   1.355       .  A
N590        C700   1.402       .  S
C592        H593   1.083       .  S
O597       Mg599   2.144       .  S
O597       Mg857   2.158   1_554  S
O597        C884   1.236       .  S
C598        H637   1.081       .  S
C598        O611   1.236       .  S
C598        O635   1.270       .  A
Mg599       O643   2.302   1_554  S
O600       Mg625   2.144       .  S
O601        C632   1.270   1_545  A
O601       Mg625   2.297       .  S
C602        O604   1.271       .  A
C602        O616   1.273       .  A
C602        C712   1.435       .  S
O603        C631   1.270       .  A
O603       Mg857   2.297       .  S
O604       Mg636   2.265       .  S
Mg605       O849   2.158   1_546  S
Mg605       O611   2.144       .  S
Mg605       O855   2.297   1_545  S
Mg605       O871   2.265   1_545  S
Mg605       O607   2.302   1_556  S
C606        O644   1.271       .  A
C606        O612   1.273       .  A
C606        C737   1.435       .  S
O607        C614   1.273       .  A
C609        H886   1.081       .  S
C609        O875   1.236       .  S
C609        O624   1.270       .  A
O610        C633   1.270       .  A
O611       Mg625   2.159   1_556  S
O612       Mg642   2.302   1_554  S
C613        O626   1.271       .  A
C613        O618   1.273       .  A
C613        C708   1.435       .  S
C614        O641   1.271       .  A
C614        C748   1.435       .  S
Mg615       O622   2.144       .  S
Mg615       O875   2.158   1_554  S
Mg615       O616   2.302   1_554  S
Mg615       O869   2.297       .  S
Mg615       O896   2.265       .  S
O617        C621   1.270   1_655  A
O617       Mg867   2.297   1_545  S
O618       Mg625   2.302   1_556  S
O619        C638   1.271       .  A
O619       Mg857   2.265       .  S
O620        C640   1.273       .  A
O620       Mg636   2.302   1_554  S
O622       Mg636   2.159   1_554  S
O622        C633   1.236       .  S
O623       Mg867   2.158   1_546  S
O623       Mg642   2.144       .  S
O623        C861   1.236       .  S
O624       Mg636   2.297       .  S
Mg625       O641   2.265       .  S
H627        C884   1.081       .  S
O628       Mg636   2.144       .  S
H630        C633   1.081       .  S
C632        H879   1.081       .  S
C632        O849   1.236       .  S
H634        C861   1.081       .  S
C638        O643   1.273       .  A
C638        C713   1.435       .  S
O639        C640   1.271       .  A
C640        C744   1.435       .  S
O644       Mg867   2.265   1_545  S
O645       Mg647   2.144       .  S
C646        H685   1.081       .  S
C646        O659   1.236       .  S
C646        O683   1.270       .  A
Mg647       O928   2.158   1_545  S
Mg647       O691   2.302       .  S
Mg647       O939   2.265   1_545  S
Mg647       O910   2.297   1_545  S
O648       Mg942   2.158   1_545  S
O648       Mg673   2.144       .  S
O648        C921   1.236       .  S
O649        C680   1.270       .  A
O649       Mg673   2.297       .  S
C650        O652   1.271       .  A
C650        O664   1.273       .  A
C650        C732   1.435       .  S
O651        C679   1.270   1_545  A
O652       Mg684   2.265       .  S
Mg653       O659   2.144       .  S
Mg653       O655   2.302       .  S
C654        O692   1.271       .  A
C654        O660   1.273       .  A
C654        C704   1.435       .  S
O655        C662   1.273       .  A
H656        C921   1.081       .  S
C657        O672   1.270   1_455  A
O658        C681   1.270       .  A
O658       Mg899   2.297       .  S
O659       Mg673   2.158       .  S
O660       Mg690   2.302       .  S
C661        O674   1.271       .  A
C661        O666   1.273       .  A
C661        C733   1.435       .  S
C662        O689   1.271       .  A
C662        C696   1.435       .  S
Mg663       O670   2.144       .  S
Mg663       O664   2.302       .  S
O665        C669   1.270       .  A
O666       Mg673   2.302       .  S
O667        C686   1.271       .  A
O668        C688   1.273       .  A
O668       Mg684   2.302       .  S
C669        H908   1.081       .  S
C669        O900   1.236       .  S
O670       Mg684   2.158       .  S
O670        C681   1.236       .  S
O671       Mg690   2.144       .  S
O672       Mg684   2.297       .  S
Mg673       O689   2.265       .  S
O674       Mg942   2.265   1_545  S
O676       Mg899   2.158       .  S
O676       Mg684   2.144       .  S
O676        C931   1.236       .  S
H677        C931   1.081       .  S
H678        C681   1.081       .  S
C679        H929   1.081       .  S
C679        O928   1.236       .  S
O683       Mg942   2.297   1_545  S
C686        O691   1.273       .  A
C686        C725   1.435       .  S
O687        C688   1.271       .  A
O687       Mg899   2.265       .  S
C688        C697   1.435       .  S
Mg690       O900   2.158       .  S
Mg690       O926   2.265       .  S
Mg690       O935   2.297       .  S
C693        C694   1.206       .  T
C694        C695   1.412       .  S
C695        C696   1.206       .  T
C697        C698   1.206       .  T
C698        C699   1.412       .  S
C699        C700   1.206       .  T
C701        C702   1.206       .  T
C702        C703   1.412       .  S
C703        C704   1.206       .  T
C705        C706   1.206       .  T
C706        C707   1.412       .  S
C707        C708   1.206       .  T
C709        C710   1.206       .  T
C710        C711   1.412       .  S
C711        C712   1.206       .  T
C713        C714   1.206       .  T
C714        C715   1.412       .  S
C715        C716   1.206       .  T
C717        C718   1.205       .  T
C718        C719   1.410       .  S
C719        C720   1.205       .  T
C721        C722   1.205       .  T
C722        C723   1.410       .  S
C723        C724   1.205       .  T
C725        C726   1.206       .  T
C726        C727   1.412       .  S
C727        C728   1.206       .  T
C729        C730   1.206       .  T
C730        C731   1.412       .  S
C731        C732   1.206       .  T
C733        C734   1.206       .  T
C734        C735   1.412       .  S
C735        C736   1.206       .  T
C737        C738   1.206       .  T
C738        C739   1.412       .  S
C739        C740   1.206       .  T
C741        C742   1.206       .  T
C742        C743   1.412       .  S
C743        C744   1.206       .  T
C745        C746   1.206       .  T
C746        C747   1.412       .  S
C747        C748   1.206       .  T
C749        C750   1.205       .  T
C750        C751   1.410       .  S
C751        C752   1.205       .  T
C753        C754   1.205       .  T
C754        C755   1.410       .  S
C755        C756   1.205       .  T
C757        C759   1.530       .  S
C757        C761   1.530       .  S
C757        C760   1.530       .  S
C757       C1008   1.467       .  S
C758        C762   1.535   1_556  S
C758        C764   1.535   1_556  S
C758        C763   1.535   1_556  S
C758       C1001   1.467       .  S
C759        C767   1.375       .  A
C759        C762   1.394       .  A
C760        C771   1.375       .  A
C760        C763   1.394       .  A
C761        C775   1.375       .  A
C761        C764   1.393       .  A
C762        C765   1.378   1_554  A
C763        C769   1.378   1_554  A
C764        C772   1.378   1_554  A
C765        N766   1.358   1_556  A
C765        H778   1.083       .  S
N766        C767   1.355       .  A
N766        C992   1.402       .  S
C767        H768   1.083       .  S
C769        N770   1.358   1_556  A
C769        H779   1.083       .  S
N770        C771   1.355       .  A
N770        C997   1.402       .  S
C771        H777   1.083       .  S
C772        N773   1.358   1_556  A
C772        H774   1.083       .  S
N773        C775   1.355       .  A
N773        C993   1.402       .  S
C775        H776   1.083       .  S
C780        C782   1.535       .  S
C780        C784   1.535       .  S
C780        C783   1.535       .  S
C780       C1005   1.467       .  S
C781        C785   1.530       .  S
C781        C787   1.530       .  S
C781        C786   1.530       .  S
C781       C1004   1.467       .  S
C782        C790   1.378       .  A
C782        C785   1.394       .  A
C783        C794   1.378       .  A
C783        C786   1.394       .  A
C784        C798   1.378       .  A
C784        C787   1.393       .  A
C785        C788   1.375       .  A
C786        C792   1.375       .  A
C787        C795   1.375       .  A
C788        N789   1.355       .  A
C788        H801   1.083       .  S
N789        C790   1.358       .  A
N789        C980   1.402       .  S
C790        H791   1.083       .  S
C792        N793   1.355       .  A
C792        H802   1.083       .  S
N793        C794   1.358       .  A
N793        C981   1.402       .  S
C794        H800   1.083       .  S
C795        N796   1.355       .  A
C795        H797   1.083       .  S
N796        C798   1.358       .  A
N796        C988   1.402       .  S
C798        H799   1.083       .  S
C803        C805   1.535   1_554  S
C803        C807   1.535   1_554  S
C803        C806   1.535   1_554  S
C803        C976   1.467       .  S
C804        C808   1.530       .  S
C804        C810   1.530       .  S
C804        C809   1.530       .  S
C804        C972   1.467       .  S
C805        C813   1.378   1_556  A
C805        C808   1.394       .  A
C806        C817   1.378   1_556  A
C806        C809   1.394       .  A
C807        C821   1.378   1_556  A
C807        C810   1.393       .  A
C808        C811   1.375       .  A
C809        C815   1.375       .  A
C810        C818   1.375       .  A
C811        N812   1.355       .  A
C811        H824   1.083       .  S
N812        C813   1.358   1_556  A
N812        C968   1.402       .  S
C813        H814   1.083       .  S
C815        N816   1.355       .  A
C815        H825   1.083       .  S
N816        C817   1.358   1_556  A
N816        C961   1.402       .  S
C817        H823   1.083       .  S
C818        N819   1.355       .  A
C818        H820   1.083       .  S
N819        C821   1.358   1_556  A
N819        C957   1.402       .  S
C821        H822   1.083       .  S
C826        C828   1.530       .  S
C826        C830   1.530       .  S
C826        C829   1.530       .  S
C826        C973   1.467       .  S
C827        C831   1.535       .  S
C827        C833   1.535       .  S
C827        C832   1.535       .  S
C827        C969   1.467       .  S
C828        C836   1.375       .  A
C828        C831   1.394       .  A
C829        C840   1.375       .  A
C829        C832   1.394       .  A
C830        C844   1.375       .  A
C830        C833   1.393       .  A
C831        C834   1.378       .  A
C832        C838   1.378       .  A
C833        C841   1.378       .  A
C834        N835   1.358       .  A
C834        H847   1.083       .  S
N835        C836   1.355       .  A
N835        C953   1.402       .  S
C836        H837   1.083       .  S
C838        N839   1.358       .  A
C838        H848   1.083       .  S
N839        C840   1.355       .  A
N839        C945   1.402       .  S
C840        H846   1.083       .  S
C841        N842   1.358       .  A
C841        H843   1.083       .  S
N842        C844   1.355       .  A
N842        C952   1.402       .  S
C844        H845   1.083       .  S
O849       Mg851   2.144       .  S
C850        H889   1.081       .  S
C850        O863   1.236       .  S
C850        O887   1.270       .  A
Mg851       O895   2.302   1_554  S
O852       Mg877   2.144       .  S
O853        C884   1.270       .  A
O853       Mg877   2.297       .  S
C854        O856   1.271       .  A
C854        O868   1.273       .  A
C854        C964   1.435       .  S
O855        C883   1.270       .  A
O856       Mg888   2.265       .  S
Mg857       O863   2.144       .  S
Mg857       O859   2.302   1_556  S
C858        O896   1.271       .  A
C858        O864   1.273       .  A
C858        C989   1.435       .  S
O859        C866   1.273       .  A
C861        O876   1.270   1_545  A
O862        C885   1.270       .  A
O863       Mg877   2.159   1_556  S
O864       Mg894   2.302   1_554  S
C865        O878   1.271       .  A
C865        O870   1.273       .  A
C865        C960   1.435       .  S
C866        O893   1.271       .  A
C866       C1000   1.435       .  S
Mg867       O874   2.144       .  S
Mg867       O868   2.302   1_554  S
O869        C873   1.270   1_655  A
O870       Mg877   2.302   1_556  S
O871        C890   1.271       .  A
O872        C892   1.273       .  A
O872       Mg888   2.302   1_554  S
O874       Mg888   2.159   1_554  S
O874        C885   1.236       .  S
O875       Mg894   2.144       .  S
O876       Mg888   2.297       .  S
Mg877       O893   2.265       .  S
O880       Mg888   2.144       .  S
H882        C885   1.081       .  S
C890        O895   1.273       .  A
C890        C965   1.435       .  S
O891        C892   1.271       .  A
C892        C996   1.435       .  S
O897       Mg899   2.144       .  S
C898        H937   1.081       .  S
C898        O911   1.236       .  S
C898        O935   1.270       .  A
Mg899       O943   2.302       .  S
O900       Mg925   2.144       .  S
O901        C932   1.270       .  A
O901       Mg925   2.297       .  S
C902        O904   1.271       .  A
C902        O916   1.273       .  A
C902        C984   1.435       .  S
O903        C931   1.270       .  A
O904       Mg936   2.265       .  S
Mg905       O911   2.144       .  S
Mg905       O907   2.302       .  S
C906        O944   1.271       .  A
C906        O912   1.273       .  A
C906        C956   1.435       .  S
O907        C914   1.273       .  A
C909        O924   1.270   1_455  A
O910        C933   1.270       .  A
O911       Mg925   2.158       .  S
O912       Mg942   2.302       .  S
C913        O926   1.271       .  A
C913        O918   1.273       .  A
C913        C985   1.435       .  S
C914        O941   1.271       .  A
C914        C948   1.435       .  S
Mg915       O922   2.144       .  S
Mg915       O916   2.302       .  S
O917        C921   1.270   1_565  A
O918       Mg925   2.302       .  S
O919        C938   1.271       .  A
O920        C940   1.273       .  A
O920       Mg936   2.302       .  S
O922       Mg936   2.158       .  S
O922        C933   1.236       .  S
O923       Mg942   2.144       .  S
O924       Mg936   2.297       .  S
Mg925       O941   2.265       .  S
O928       Mg936   2.144       .  S
H930        C933   1.081       .  S
C938        O943   1.273       .  A
C938        C977   1.435       .  S
O939        C940   1.271       .  A
C940        C949   1.435       .  S
C945        C946   1.206       .  T
C946        C947   1.412       .  S
C947        C948   1.206       .  T
C949        C950   1.206       .  T
C950        C951   1.412       .  S
C951        C952   1.206       .  T
C953        C954   1.206       .  T
C954        C955   1.412       .  S
C955        C956   1.206       .  T
C957        C958   1.206       .  T
C958        C959   1.412       .  S
C959        C960   1.206       .  T
C961        C962   1.206       .  T
C962        C963   1.412       .  S
C963        C964   1.206       .  T
C965        C966   1.206       .  T
C966        C967   1.412       .  S
C967        C968   1.206       .  T
C969        C970   1.205       .  T
C970        C971   1.410       .  S
C971        C972   1.205       .  T
C973        C974   1.205       .  T
C974        C975   1.410       .  S
C975        C976   1.205       .  T
C977        C978   1.206       .  T
C978        C979   1.412       .  S
C979        C980   1.206       .  T
C981        C982   1.206       .  T
C982        C983   1.412       .  S
C983        C984   1.206       .  T
C985        C986   1.206       .  T
C986        C987   1.412       .  S
C987        C988   1.206       .  T
C989        C990   1.206       .  T
C990        C991   1.412       .  S
C991        C992   1.206       .  T
C993        C994   1.206       .  T
C994        C995   1.412       .  S
C995        C996   1.206       .  T
C997        C998   1.206       .  T
C998        C999   1.412       .  S
C999       C1000   1.206       .  T
C1001      C1002   1.205       .  T
C1002      C1003   1.410       .  S
C1003      C1004   1.205       .  T
C1005      C1006   1.205       .  T
C1006      C1007   1.410       .  S
C1007      C1008   1.205       .  T
