geometry optimzed in LAMMPS
_audit_creation_date              2020-12-01 
_audit_creation_method            'lammps2cif' 
_symmetry_space_group_name_H-M    'P1' 
_symmetry_Int_Tables_number       1 
_symmetry_cell_setting            triclinic 
loop_ 
_symmetry_equiv_pos_as_xyz 
  x,y,z 
_cell_length_a                    29.36922613 
_cell_length_b                    29.337527928619338 
_cell_length_c                    25.29755093688066 
_cell_angle_alpha                 89.85844618533298 
_cell_angle_beta                  90.15836496437045 
_cell_angle_gamma                 119.83300742621039 
loop_ 
_atom_site_label 
_atom_site_type_symbol 
_atom_site_fract_x 
_atom_site_fract_y 
_atom_site_fract_z 
_atom_site_charge 
N1          N  0.99600800  0.45287178  0.05864967    -0.36500
N2          N  0.99632366  0.44700659  0.94364744    -0.57100
N3          N  0.99683719  0.54607109  0.93816897    -0.36500
N4          N  0.00118562  0.55420762  0.05310702    -0.57100
C5          C  0.00458424  0.41201701  0.05215584     0.27100
C6          C  0.00750323  0.46855109  0.10955340     0.27100
C7          C  0.00622601  0.54028773  0.88698262     0.27000
C8          C  0.00826455  0.59645988  0.94434834     0.27000
C9          C  0.98743270  0.39825716  0.95520501     0.35700
C10         C  0.98844742  0.44799095  0.89106298     0.35700
C11         C  0.99460444  0.54628775  0.10589894     0.35700
C12         C  0.99451558  0.59556660  0.04174112     0.35700
C13         C  0.02133575  0.40139093  0.09955816    -0.21800
C14         C  0.02315745  0.43700882  0.13574756    -0.21800
C15         C  0.02345575  0.58744656  0.86034877    -0.21800
C16         C  0.02477939  0.62284944  0.89651472    -0.21800
C17         C  0.97450695  0.36823976  0.90957236    -0.22900
C18         C  0.97513040  0.39979720  0.86887712    -0.22900
C19         C  0.98453871  0.58337566  0.12841914    -0.22900
C20         C  0.98446081  0.61462161  0.08772362    -0.22900
C21         C  0.99464049  0.38185362  0.00565131    -0.18200
C22         C  0.00056833  0.50787260  0.13417168    -0.18200
C23         C  0.00117252  0.61858899  0.99102742    -0.18200
C24         C  0.99609761  0.49281697  0.86260086    -0.18200
H25         H  0.03066898  0.37069273  0.10753204     0.14700
H26         H  0.03410994  0.43890489  0.17690829     0.14700
H27         H  0.03336206  0.59545756  0.81890677     0.14700
H28         H  0.03597961  0.66330478  0.88824558     0.14700
H29         H  0.96617432  0.32805615  0.90590902     0.13000
H30         H  0.96727736  0.38876122  0.82765496     0.13000
H31         H  0.97846455  0.58778720  0.16984660     0.13000
H32         H  0.97834311  0.64792330  0.09159251     0.13000
H33         H  0.97726374  0.46491378  0.03187877     0.22200
H34         H  0.97767431  0.51603358  0.96545675     0.26200
N35         N  0.99065496  0.44451699  0.44310142    -0.36500
N36         N  0.99482099  0.45112723  0.55823083    -0.57100
N37         N  0.99276810  0.54912279  0.55370856    -0.36500
N38         N  0.99453584  0.54548131  0.43850199    -0.57100
C39         C  0.00016988  0.40492483  0.45455856     0.27100
C40         C  0.99900345  0.45463284  0.39069764     0.27100
C41         C  0.00302003  0.54791478  0.60574891     0.27000
C42         C  0.00382804  0.59860226  0.54193674     0.27000
C43         C  0.98729633  0.40209852  0.55234913     0.35700
C44         C  0.98716922  0.45624798  0.61001038     0.35700
C45         C  0.98648217  0.53277276  0.38669064     0.35700
C46         C  0.98848059  0.58791014  0.44447637     0.35700
C47         C  0.01345729  0.38870910  0.40853753    -0.21800
C48         C  0.01270104  0.42007596  0.36822435    -0.21800
C49         C  0.01992594  0.59705912  0.62763845    -0.21800
C50         C  0.02041870  0.62907559  0.58734239    -0.21800
C51         C  0.97532915  0.37624936  0.60062123    -0.22900
C52         C  0.97513713  0.41047551  0.63709120    -0.22900
C53         C  0.97580309  0.56759092  0.35966400    -0.22900
C54         C  0.97705412  0.60246904  0.39623871    -0.22900
C55         C  0.99432318  0.38121809  0.50484821    -0.18200
C56         C  0.99249201  0.49278436  0.36240715    -0.18200
C57         C  0.99666085  0.61612569  0.49198525    -0.18200
C58         C  0.99531104  0.50299892  0.63425772    -0.18200
H59         H  0.02243888  0.35731431  0.40435038     0.14700
H60         H  0.02108422  0.41756947  0.32703564     0.14700
H61         H  0.03061519  0.60859211  0.66841859     0.14700
H62         H  0.03149014  0.67005530  0.59110642     0.14700
H63         H  0.96808091  0.33699357  0.60893676     0.13000
H64         H  0.96788374  0.40277647  0.67897959     0.13000
H65         H  0.96857298  0.56831535  0.31777648     0.13000
H66         H  0.97094192  0.63526206  0.38804029     0.13000
H67         H  0.97420478  0.46001736  0.46847385     0.26200
H68         H  0.97390225  0.51673718  0.52902433     0.26200
O69         O  0.02370571  0.93482254  0.03641462    -0.88300
C70         C  0.09144309  0.04747117  0.92075598     0.87800
Mg71       Mg  0.94304443  0.87299490  0.03192960     1.58100
O72         O  0.06250737  0.09056733  0.03973383    -0.88000
O73         O  0.07784986  0.99858215  0.08803976    -0.75300
C74         C  0.80943906  0.99401679  0.97797479     0.92800
O75         O  0.99855015  0.92153076  0.91142934    -0.75100
O76         O  0.80754306  0.95024029  0.97038617    -0.82700
Mg77       Mg  0.06962975  0.94617268  0.96625782     1.58000
C78         C  0.98932121  0.18209857  0.02511621     0.92700
O79         O  0.14578521  0.96683512  0.01080169    -0.80900
H80         H  0.07179059  0.10349758  0.11761501    -0.06300
C81         C  0.95448584  0.04949401  0.92121241     0.87700
O82         O  0.91702154  0.91786186  0.08737929    -0.75400
O83         O  0.08820267  0.02725325  0.96442742    -0.88200
O84         O  0.03156378  0.18172785  0.01500277    -0.81000
C85         C  0.17948456  0.19308286  0.98378823     0.92800
C86         C  0.18836392  0.00928946  0.02044504     0.92700
Mg87       Mg  0.92716274  0.05467157  0.03580726     1.58000
O88         O  0.85180647  0.03472868  0.99166691    -0.80900
O89         O  0.99785941  0.07877624  0.09097956    -0.75200
O90         O  0.17975429  0.15066699  0.99439485    -0.81000
O91         O  0.05034460  0.86097928  0.96955779    -0.82700
O92         O  0.81710034  0.85304344  0.00929181    -0.81000
C93         C  0.04562558  0.09199642  0.08396089     0.87100
O94         O  0.90807472  0.97376463  0.03748619    -0.88200
O95         O  0.97295361  0.06534576  0.96568925    -0.88300
O96         O  0.91972906  0.00199244  0.91315673    -0.75300
Mg97       Mg  0.12402314  0.07168096  0.03533301     1.58000
O98         O  0.13679387  0.19306353  0.97580881    -0.82700
H99         H  0.02909789  0.92421001  0.11379401    -0.06400
O100        O  0.93397657  0.91029087  0.96256989    -0.88000
H101        H  0.92452266  0.89641336  0.88484263    -0.06300
H102        H  0.89178165  0.96648093  0.11477296    -0.06400
C103        C  0.95077661  0.90835650  0.91844264     0.87100
C104        C  0.04296613  0.95096277  0.08056893     0.87700
C105        C  0.90459906  0.95324121  0.08106001     0.87700
H106        H  0.96924330  0.07638435  0.88814121    -0.06400
O107        O  0.07904287  0.08283071  0.91434825    -0.75400
Mg108      Mg  0.87264197  0.92985886  0.96618993     1.58000
H109        H  0.10404218  0.03399085  0.88706509    -0.06400
C110        C  0.00691572  0.81844813  0.97513604     0.92700
O111        O  0.85831692  0.80832638  0.02526382    -0.82700
C112        C  0.81616911  0.80996800  0.01921575     0.92800
O113        O  0.18886244  0.05231787  0.02797495    -0.82700
Mg114      Mg  0.05296066  0.12745473  0.96991001     1.58200
O115        O  0.96476667  0.81856521  0.98662099    -0.81000
O116        O  0.94623254  0.13955068  0.03147501    -0.82700
O117        O  0.02661402  0.93700576  0.53513291    -0.88300
C118        C  0.09610582  0.04691169  0.41887697     0.87800
Mg119      Mg  0.94602014  0.87644745  0.53191563     1.58100
O120        O  0.06880845  0.09252379  0.53688853    -0.88000
O121        O  0.08151910  0.99986316  0.58705514    -0.75300
C122        C  0.81312381  0.99741169  0.47617645     0.92800
O123        O  0.00161114  0.92329151  0.41029476    -0.75100
O124        O  0.81254014  0.95439164  0.46797803    -0.82700
Mg125      Mg  0.07198997  0.94571469  0.46529519     1.58000
C126        C  0.99775540  0.18612276  0.52270145     0.92700
O127        O  0.14671540  0.96347210  0.51054587    -0.80900
H128        H  0.07618555  0.10326679  0.61512047    -0.06300
C129        C  0.95963444  0.05241247  0.41824362     0.87700
O130        O  0.92130289  0.92294133  0.58606529    -0.75400
O131        O  0.09301950  0.02710052  0.46276150    -0.88200
O132        O  0.03964633  0.18578371  0.51045701    -0.81000
C133        C  0.18753768  0.19127510  0.47857040     0.92800
C134        C  0.18993141  0.00460332  0.52160798     0.92700
Mg135      Mg  0.93229174  0.05825218  0.53252828     1.58000
O136        O  0.85533299  0.03929103  0.48869484    -0.80900
O137        O  0.00310646  0.08029441  0.58705621    -0.75200
O138        O  0.18611044  0.14825255  0.49022440    -0.81000
O139        O  0.05043465  0.86022620  0.46909828    -0.82700
O140        O  0.81886940  0.85494031  0.50624705    -0.81000
C141        C  0.05089180  0.09304211  0.58086147     0.87100
O142        O  0.91123850  0.97702119  0.53452478    -0.88200
O143        O  0.97844285  0.06857788  0.46255723    -0.88300
O144        O  0.92423864  0.00500627  0.41069792    -0.75300
Mg145      Mg  0.12922170  0.07141989  0.53337377     1.58000
O146        O  0.14555386  0.19319865  0.47204247    -0.82700
H147        H  0.03082267  0.92597363  0.61260530    -0.06400
O148        O  0.93668706  0.91222510  0.46098222    -0.88000
H149        H  0.92821056  0.89990786  0.38298066    -0.06300
H150        H  0.89569612  0.97172583  0.61186298    -0.06400
C151        C  0.95395208  0.91073731  0.41693340     0.87100
C152        C  0.04574719  0.95268947  0.57940530     0.87700
C153        C  0.90822421  0.95764447  0.57860103     0.87700
H154        H  0.97452161  0.07893986  0.38489020    -0.06400
O155        O  0.08417479  0.08257653  0.41209754    -0.75400
Mg156      Mg  0.87603746  0.93267786  0.46366557     1.58000
H157        H  0.10802183  0.03268202  0.38525836    -0.06400
C158        C  0.00694993  0.81834311  0.47632800     0.92700
O159        O  0.86165595  0.81280592  0.52796080    -0.82700
C160        C  0.81912559  0.81322931  0.52013226     0.92800
O161        O  0.19242232  0.04876621  0.52810352    -0.82700
Mg162      Mg  0.05992151  0.12940333  0.46669239     1.58200
O163        O  0.96574755  0.81990695  0.48868973    -0.81000
O164        O  0.95451153  0.14373113  0.52958161    -0.82700
N165        N  0.55348008  0.00745803  0.05124138    -0.36500
N166        N  0.54951238  0.00759055  0.93587037    -0.57100
N167        N  0.45095326  0.00975053  0.93962029    -0.36500
N168        N  0.45211683  0.00390619  0.05504551    -0.57100
C169        C  0.59411835  0.99947566  0.04032733     0.27100
C170        C  0.54341664  0.99935751  0.10369168     0.27100
C171        C  0.45418836  0.00419335  0.88689361     0.27000
C172        C  0.40245789  0.00205172  0.95015496     0.27000
C173        C  0.59654935  0.01029036  0.94176334     0.35700
C174        C  0.54375458  0.01311308  0.88365546     0.35700
C175        C  0.46331768  0.00906365  0.10730837     0.35700
C176        C  0.40923556  0.00923802  0.04902548     0.35700
C177        C  0.61110865  0.98761272  0.08687896    -0.21800
C178        C  0.57921740  0.98759598  0.12677609    -0.21800
C179        C  0.40739867  0.99409820  0.86326429    -0.21800
C180        C  0.37481125  0.99278600  0.90311815    -0.21800
C181        C  0.62048399  0.01699432  0.89294951    -0.22900
C182        C  0.58731308  0.01912721  0.85629316    -0.22900
C183        C  0.42693744  0.01696320  0.13460192    -0.22900
C184        C  0.39268268  0.01689199  0.09783535    -0.22900
C185        C  0.61726849  0.00381104  0.98993237    -0.18200
C186        C  0.50395832  0.00388149  0.13165109    -0.18200
C187        C  0.38312358  0.00518885  0.00064524    -0.18200
C188        C  0.49844404  0.00903047  0.85926444    -0.18200
H189        H  0.64319970  0.97977028  0.09170123     0.14700
H190        H  0.58209481  0.97976321  0.16811159     0.14700
H191        H  0.39773512  0.98837907  0.82160002     0.14700
H192        H  0.33529398  0.98592277  0.89795697     0.14700
H193        H  0.65768922  0.01939682  0.88433267     0.13000
H194        H  0.59416891  0.02353805  0.81408603     0.13000
H195        H  0.42486287  0.02180606  0.17676711     0.13000
H196        H  0.35922111  0.02168913  0.10634967     0.13000
H197        H  0.53663039  0.02221826  0.02536068     0.26200
H198        H  0.48173916  0.02274108  0.96628462     0.26200
N199        N  0.54629329  0.99933904  0.43589632    -0.36500
N200        N  0.55219662  0.99847433  0.55089302    -0.57100
N201        N  0.45138106  0.99407659  0.55607215    -0.36500
N202        N  0.44314929  0.99055344  0.44129547    -0.57100
C203        C  0.58848738  0.99284637  0.44222595     0.27100
C204        C  0.53097507  0.98842484  0.38479425     0.27100
C205        C  0.45760666  0.98523224  0.60732180     0.27000
C206        C  0.40094907  0.98224170  0.54989508     0.27000
C207        C  0.60094121  0.00738571  0.53977173     0.35700
C208        C  0.55053299  0.00495251  0.60363158     0.35700
C209        C  0.45142835  0.99833535  0.38865452     0.35700
C210        C  0.40189919  0.99722501  0.45278882     0.35700
C211        C  0.60052091  0.97835965  0.39438493    -0.21800
C212        C  0.56430596  0.97554961  0.35823800    -0.21800
C213        C  0.41050001  0.96753768  0.63398784    -0.21800
C214        C  0.37479327  0.96571191  0.59776658    -0.21800
C215        C  0.63019897  0.01868935  0.58590648    -0.22900
C216        C  0.59825633  0.01723462  0.62638336    -0.22900
C217        C  0.41451922  0.00891998  0.36633939    -0.22900
C218        C  0.38322272  0.00840308  0.40704050    -0.22900
C219        C  0.61823178  0.00209665  0.48913385    -0.18200
C220        C  0.49033736  0.99352604  0.36030340    -0.18200
C221        C  0.37915235  0.99044150  0.50351178    -0.18200
C222        C  0.50545467  0.99667942  0.63177278    -0.18200
H223        H  0.63246105  0.97106210  0.38608234     0.14700
H224        H  0.56323093  0.96582010  0.31685120     0.14700
H225        H  0.40279679  0.95798148  0.67553707     0.14700
H226        H  0.33442594  0.95451544  0.60607877     0.14700
H227        H  0.67015936  0.02655132  0.59004008     0.13000
H228        H  0.60866079  0.02362663  0.66785948     0.13000
H229        H  0.41047731  0.01609846  0.32507321     0.13000
H230        H  0.35019720  0.01496145  0.40331905     0.13000
H231        H  0.53270795  0.01618681  0.46311337     0.26200
H232        H  0.48129614  0.01392165  0.52887484     0.26200
N233        N  0.44507595  0.45422161  0.05618725    -0.36500
N234        N  0.44945188  0.45429348  0.94101424    -0.57100
N235        N  0.54814120  0.55343679  0.94298365    -0.36500
N236        N  0.54592805  0.55068940  0.05812447    -0.57100
C237        C  0.40541795  0.40514368  0.04556505     0.27100
C238        C  0.45761917  0.45583205  0.10802264     0.27100
C239        C  0.54646146  0.54104748  0.89125066     0.27000
C240        C  0.59712478  0.59313252  0.95354930     0.27000
C241        C  0.39969028  0.41477272  0.94806451     0.35700
C242        C  0.45466699  0.46561749  0.88880040     0.35700
C243        C  0.53384067  0.54696277  0.11001371     0.35700
C244        C  0.58723135  0.59941906  0.05084879     0.35700
C245        C  0.39193208  0.37536527  0.09153415    -0.21800
C246        C  0.42501525  0.40729374  0.13087606    -0.21800
C247        C  0.59475707  0.57419266  0.86826442    -0.21800
C248        C  0.62670691  0.60715782  0.90758268    -0.21800
C249        C  0.37337599  0.40077248  0.90001148    -0.22900
C250        C  0.40817808  0.43296955  0.86252772    -0.22900
C251        C  0.56771294  0.59338969  0.13576657    -0.22900
C252        C  0.60158445  0.62656074  0.09832950    -0.22900
C253        C  0.37922232  0.38778267  0.99625018    -0.18200
C254        C  0.49596004  0.50076152  0.13555967    -0.18200
C255        C  0.61488468  0.61862072  0.00295854    -0.18200
C256        C  0.50165188  0.50261568  0.86374513    -0.18200
H257        H  0.36122564  0.33493592  0.09640614     0.14700
H258        H  0.42473078  0.39618828  0.17175876     0.14700
H259        H  0.60568515  0.57496412  0.82730282     0.14700
H260        H  0.66700698  0.63813720  0.90277327     0.14700
H261        H  0.33358217  0.36986151  0.89239801     0.13000
H262        H  0.40030476  0.43201581  0.82059351     0.13000
H263        H  0.56859812  0.60216981  0.17741387     0.13000
H264        H  0.63365448  0.66591936  0.10549181     0.13000
H265        H  0.45867475  0.48627515  0.03093299     0.26200
H266        H  0.51628621  0.53937790  0.96830041     0.26200
N267        N  0.45820967  0.44279117  0.55420514    -0.36500
N268        N  0.45815408  0.45484135  0.43956986    -0.57100
N269        N  0.55935795  0.55142209  0.44559828    -0.36500
N270        N  0.55627735  0.54265374  0.56067339    -0.57100
C271        C  0.40869761  0.40463013  0.54262288     0.27100
C272        C  0.46039847  0.45166745  0.60690577     0.27100
C273        C  0.54880381  0.55200240  0.39350355     0.27000
C274        C  0.60017845  0.59925615  0.45817149     0.27000
C275        C  0.41625154  0.40599276  0.44429692     0.35700
C276        C  0.46950489  0.46238174  0.38743474     0.35700
C277        C  0.55174087  0.52782470  0.61186459     0.35700
C278        C  0.60466001  0.58501268  0.55531536     0.35700
C279        C  0.37944444  0.38802427  0.58872733    -0.21800
C280        C  0.41200836  0.41780426  0.62926567    -0.21800
C281        C  0.58422829  0.60054930  0.37233314    -0.21800
C282        C  0.61662228  0.63033799  0.41308096    -0.21800
C283        C  0.40055192  0.38274722  0.39503377    -0.22900
C284        C  0.43428482  0.41832451  0.35907940    -0.22900
C285        C  0.59744634  0.56093756  0.63916481    -0.22900
C286        C  0.63089977  0.59723413  0.60340138    -0.22900
C287        C  0.38980399  0.38287541  0.49193451    -0.18200
C288        C  0.50528970  0.48825518  0.63565133    -0.18200
C289        C  0.62464323  0.61480534  0.50851349    -0.18200
C290        C  0.50922864  0.50933090  0.36424666    -0.18200
H291        H  0.33880228  0.35763591  0.59275545     0.14700
H292        H  0.40128290  0.41469198  0.67055896     0.14700
H293        H  0.58663968  0.61317302  0.33169710     0.14700
H294        H  0.64886383  0.67025302  0.40974999     0.14700
H295        H  0.36798384  0.34420841  0.38584226     0.13000
H296        H  0.43276172  0.41237930  0.31676357     0.13000
H297        H  0.60547524  0.55971023  0.68078123     0.13000
H298        H  0.66985612  0.62934954  0.61204482     0.13000
H299        H  0.48987257  0.45811486  0.52853536     0.26200
H300        H  0.54294362  0.51870871  0.46992586     0.26200
C301        C  0.50953317  0.45991131  0.78223636    -0.26200
C302        C  0.50359468  0.50022573  0.80512193    -0.14300
C303        C  0.49593028  0.53483994  0.77213652     0.36300
C304        C  0.49582105  0.52904733  0.71725440    -0.25700
C305        C  0.50224147  0.48912731  0.69429561    -0.14900
C306        C  0.50847255  0.45353268  0.72723443     0.37400
N307        N  0.51447609  0.41119660  0.70656511    -0.89200
H308        H  0.51450838  0.43280219  0.80750974     0.18500
H309        H  0.49066945  0.55608788  0.69204290     0.18500
N310        N  0.48681581  0.57527471  0.79266547    -0.88200
H311        H  0.48216914  0.37598363  0.71917979     0.35900
H312        H  0.51368042  0.41047106  0.66534979     0.41000
H313        H  0.48580860  0.57513213  0.83387664     0.40600
H314        H  0.51842204  0.61148768  0.78124475     0.35500
C315        C  0.54392830  0.50410117  0.27646631    -0.26200
C316        C  0.50843078  0.51290606  0.30544297    -0.14300
C317        C  0.46799451  0.51652787  0.27832720     0.36300
C318        C  0.46327146  0.50951434  0.22333079    -0.25700
C319        C  0.49836573  0.49999881  0.19443451    -0.14900
C320        C  0.53947658  0.49750265  0.22144676     0.37400
N321        N  0.57744822  0.48861496  0.19451292    -0.89200
H322        H  0.57451289  0.50070830  0.29709094     0.18500
H323        H  0.43261580  0.51278084  0.20270695     0.18500
N324        N  0.43077471  0.52655383  0.30524944    -0.88200
H325        H  0.57387706  0.45364193  0.20918407     0.35900
H326        H  0.56973096  0.48275051  0.15407662     0.41000
H327        H  0.43897505  0.53281444  0.34560072     0.40600
H328        H  0.43500400  0.56169755  0.29028935     0.35500
C329        C  0.48523262  0.95847833  0.77698053    -0.26200
C330        C  0.49690015  0.00634288  0.80055940    -0.14300
C331        C  0.51419073  0.05166566  0.76863085     0.36300
C332        C  0.51868183  0.04758313  0.71392141    -0.25700
C333        C  0.50712968  0.99972327  0.69041585    -0.14900
C334        C  0.49058610  0.95461023  0.72245096     0.37400
N335        N  0.47808282  0.90429473  0.70111733    -0.89200
H336        H  0.47313345  0.92402777  0.80156136     0.18500
H337        H  0.53078458  0.08201553  0.68931067     0.18500
N338        N  0.52858141  0.10239494  0.79023225    -0.88200
H339        H  0.50447213  0.89401992  0.71746514     0.35900
H340        H  0.48366191  0.90595188  0.66028321     0.41000
H341        H  0.52410343  0.10100465  0.83120057     0.40600
H342        H  0.50265367  0.11372983  0.77477346     0.35500
C343        C  0.47352273  0.95280969  0.21530188    -0.26200
C344        C  0.50357227  0.00173773  0.19052726    -0.14300
C345        C  0.52726334  0.04791605  0.22168587     0.36300
C346        C  0.52006377  0.04385824  0.27660574    -0.25700
C347        C  0.49019544  0.99500549  0.30143578    -0.14900
C348        C  0.46662418  0.94873088  0.27033322     0.37400
N349        N  0.43660879  0.89716919  0.29310580    -0.89200
H350        H  0.45479262  0.91746275  0.19147141     0.18500
H351        H  0.53879030  0.07923460  0.30039145     0.18500
N352        N  0.55809487  0.09945001  0.19909556    -0.88200
H353        H  0.39827679  0.88072909  0.27863946     0.35900
H354        H  0.43407810  0.89874510  0.33413788     0.41000
H355        H  0.56116922  0.09798175  0.15812943     0.40600
H356        H  0.59620288  0.11536780  0.21407469     0.35500
C357        C  0.28520515  0.23805463  0.48912312    -0.26200
C358        C  0.23971026  0.24061743  0.47658936    -0.14300
C359        C  0.24472259  0.29065822  0.46749934     0.36300
C360        C  0.29391725  0.33623534  0.47402745    -0.25700
C361        C  0.33856906  0.33323245  0.48793185    -0.14900
C362        C  0.33442028  0.28344510  0.49435667     0.37400
N363        N  0.37916326  0.27725466  0.50523128    -0.89200
H364        H  0.28270622  0.20035202  0.49559315     0.18500
H365        H  0.29774132  0.37454249  0.46770818     0.18500
N366        N  0.20010443  0.29537168  0.45200790    -0.88200
H367        H  0.37394442  0.26033471  0.54272902     0.35900
H368        H  0.41403625  0.31322647  0.50658688     0.41000
H369        H  0.18892780  0.27917481  0.41419416     0.40600
H370        H  0.21031353  0.33484929  0.44857694     0.35500
C371        C  0.77002594  0.71620058  0.51133982    -0.26200
C372        C  0.76896670  0.76256584  0.52270006    -0.14300
C373        C  0.72010373  0.75968859  0.53143634     0.36300
C374        C  0.67353775  0.71102025  0.52619196    -0.25700
C375        C  0.67491831  0.66532746  0.51274135    -0.14900
C376        C  0.72386562  0.66783336  0.50604774     0.37400
N377        N  0.72842283  0.62235160  0.49406729    -0.89200
H378        H  0.80715604  0.71762190  0.50469408     0.18500
H379        H  0.63590084  0.70854963  0.53259412     0.18500
N380        N  0.71788334  0.80587903  0.54584360    -0.88200
H381        H  0.74559894  0.62814896  0.45671805     0.35900
H382        H  0.69190175  0.58821999  0.49162806     0.41000
H383        H  0.73629046  0.81844676  0.58260210     0.40600
H384        H  0.67895571  0.79681986  0.55101774     0.35500
C385        C  0.23539016  0.95205327  0.51234971    -0.26200
C386        C  0.23875824  0.00088987  0.52276544    -0.14300
C387        C  0.28911907  0.04589976  0.52811685     0.36300
C388        C  0.33420243  0.04149900  0.52160404    -0.25700
C389        C  0.33032467  0.99321606  0.50931133    -0.14900
C390        C  0.28067445  0.94803364  0.50555530     0.37400
N391        N  0.27626331  0.89809183  0.49476138    -0.89200
H392        H  0.19747938  0.91683096  0.50810325     0.18500
H393        H  0.37259042  0.07616732  0.52560876     0.18500
N394        N  0.29501320  0.09644868  0.53903915    -0.88200
H395        H  0.25548232  0.87260761  0.52580763     0.35900
H396        H  0.25420363  0.88319550  0.46019889     0.41000
H397        H  0.31662278  0.12192904  0.50830076     0.40600
H398        H  0.31666496  0.11061872  0.57394064     0.35500
C399        C  0.66825732  0.95477899  0.48988625    -0.26200
C400        C  0.66901449  0.00263571  0.48496687    -0.14300
C401        C  0.71698484  0.04887914  0.47365327     0.36300
C402        C  0.76323479  0.04607515  0.46933593    -0.25700
C403        C  0.76273702  0.99809399  0.47497071    -0.14900
C404        C  0.71428542  0.95197785  0.48492776     0.37400
N405        N  0.71163963  0.90230874  0.49222766    -0.89200
H406        H  0.63148224  0.91919515  0.49788380     0.18500
H407        H  0.79994337  0.08189869  0.46195569     0.18500
N408        N  0.72047690  0.09923605  0.46714507    -0.88200
H409        H  0.68550625  0.87604536  0.46429301     0.35900
H410        H  0.69623285  0.88836563  0.52981734     0.41000
H411        H  0.68414426  0.09694229  0.47201186     0.40600
H412        H  0.73213743  0.11144232  0.42820112     0.35500
C413        C  0.28157873  0.33956218  0.99092690    -0.26200
C414        C  0.32822136  0.33767955  0.99402433    -0.14300
C415        C  0.32636426  0.28889073  0.99142476     0.36300
C416        C  0.27756096  0.24257228  0.98684844    -0.25700
C417        C  0.23028447  0.24385593  0.98412788    -0.14900
C418        C  0.23258162  0.29338442  0.98632156     0.37400
N419        N  0.18549264  0.29697191  0.98496007    -0.89200
H420        H  0.28357200  0.37743896  0.99229883     0.18500
H421        H  0.27658927  0.20519630  0.98560976     0.18500
N422        N  0.37412099  0.28666180  0.99385216    -0.88200
H423        H  0.19448349  0.33622492  0.98399580     0.35900
H424        H  0.16560509  0.28147567  0.02050979     0.41000
H425        H  0.39595810  0.30525604  0.96004696     0.40600
H426        H  0.36601982  0.24771116  0.99236608     0.35500
C427        C  0.71067336  0.66485745  0.01986461    -0.26200
C428        C  0.66617752  0.66801060  0.00568437    -0.14300
C429        C  0.67021823  0.71774546  0.99955633     0.36300
C430        C  0.71905383  0.76306849  0.00650367    -0.25700
C431        C  0.76437899  0.76043148  0.01958938    -0.14900
C432        C  0.75967619  0.71036398  0.02727584     0.37400
N433        N  0.80437934  0.70557154  0.04222779    -0.89200
H434        H  0.70682922  0.62650117  0.02586960     0.18500
H435        H  0.72142797  0.80079576  0.00068334     0.18500
N436        N  0.62571754  0.72391196  0.98721487    -0.88200
H437        H  0.79439329  0.66607646  0.04447121     0.35900
H438        H  0.81528783  0.72078979  0.08041305     0.41000
H439        H  0.59120450  0.68784535  0.98359843     0.40600
H440        H  0.63253733  0.74224447  0.95029905     0.35500
C441        C  0.23741363  0.96024250  0.01314808    -0.26200
C442        C  0.23872916  0.00861571  0.01901800    -0.14300
C443        C  0.28794969  0.05548586  0.01754001     0.36300
C444        C  0.33391795  0.05302219  0.00984348    -0.25700
C445        C  0.33232918  0.00480257  0.00379148    -0.14900
C446        C  0.28339111  0.95765756  0.00591778     0.37400
N447        N  0.27864246  0.90667280  0.00048452    -0.89200
H448        H  0.20021550  0.92379933  0.01361149     0.18500
H449        H  0.37141881  0.08914826  0.00919842     0.18500
N450        N  0.29173839  0.10588096  0.02283579    -0.88200
H451        H  0.26356874  0.88637989  0.03597938     0.35900
H452        H  0.31499955  0.90920958  0.99496027     0.41000
H453        H  0.30971104  0.12784713  0.98886184     0.40600
H454        H  0.31601064  0.12508649  0.05513779     0.35500
C455        C  0.71414356  0.04666649  0.98212311    -0.26200
C456        C  0.66592071  0.00002829  0.98661278    -0.14300
C457        C  0.66456119  0.95117809  0.98396167     0.36300
C458        C  0.71167397  0.95041403  0.97857880    -0.25700
C459        C  0.76037327  0.99711345  0.97543152    -0.14900
C460        C  0.76130831  0.04590789  0.97602107     0.37400
N461        N  0.80997164  0.09456229  0.97063875    -0.89200
H462        H  0.71475708  0.08390750  0.98275423     0.18500
H463        H  0.71006724  0.91270038  0.97825439     0.18500
N464        N  0.61638141  0.90170583  0.98634031    -0.88200
H465        H  0.80375637  0.12664581  0.97269884     0.35900
H466        H  0.82456834  0.09522996  0.93281850     0.41000
H467        H  0.58367218  0.90661496  0.98915642     0.40600
H468        H  0.61731643  0.88254616  0.02090857     0.35500
C469        C  0.95003049  0.23589696  0.51540834    -0.26200
C470        C  0.99791881  0.23692166  0.52374150    -0.14300
C471        C  0.04479791  0.28612448  0.52637045     0.36300
C472        C  0.04262315  0.33257528  0.51881482    -0.25700
C473        C  0.99484057  0.33093900  0.50867270    -0.14900
C474        C  0.94787090  0.28196500  0.50745214     0.37400
N475        N  0.89729296  0.27733014  0.49873378    -0.89200
H476        H  0.91369441  0.19870139  0.51312060     0.18500
H477        H  0.07828537  0.37038075  0.52114907     0.18500
N478        N  0.09429486  0.28888713  0.53660911    -0.88200
H479        H  0.88220816  0.25655984  0.46352261     0.35900
H480        H  0.89990588  0.31382117  0.49335537     0.41000
H481        H  0.09268758  0.27436495  0.57475016     0.40600
H482        H  0.12482274  0.32792879  0.53664031     0.35500
C483        C  0.95677612  0.72112699  0.48918670    -0.26200
C484        C  0.00423732  0.76616804  0.47489564    -0.14300
C485        C  0.04900662  0.76090422  0.46556317     0.36300
C486        C  0.04550453  0.71168792  0.47263616    -0.25700
C487        C  0.99850457  0.66756932  0.48842616    -0.14900
C488        C  0.95332793  0.67215002  0.49613458     0.37400
N489        N  0.90326340  0.62811214  0.51035248    -0.89200
H490        H  0.92187106  0.72391517  0.49627097     0.18500
H491        H  0.07958905  0.70746014  0.46549190     0.18500
N492        N  0.09803431  0.80534610  0.44967065    -0.88200
H493        H  0.89343223  0.63573382  0.54770478     0.35900
H494        H  0.90473224  0.59342614  0.51379176     0.41000
H495        H  0.09272035  0.81626977  0.41177613     0.40600
H496        H  0.12723001  0.79501071  0.44639914     0.35500
C497        C  0.95071535  0.48832952  0.72081090    -0.26200
C498        C  0.99755555  0.50457794  0.69300883    -0.14300
C499        C  0.04325158  0.51385952  0.72094802     0.36300
C500        C  0.04094518  0.50732174  0.77597651    -0.25700
C501        C  0.99414563  0.49133611  0.80380955    -0.14900
C502        C  0.94830595  0.48139391  0.77577274     0.37400
N503        N  0.89864576  0.46354899  0.80148056    -0.89200
H504        H  0.91529480  0.47955569  0.69931966     0.18500
H505        H  0.07631004  0.51587594  0.79744388     0.18500
N506        N  0.09252055  0.53015666  0.69500588    -0.88200
H507        H  0.88882253  0.49308393  0.79742521     0.35900
H508        H  0.90067100  0.45766612  0.84191476     0.41000
H509        H  0.09044244  0.53571125  0.65450826     0.40600
H510        H  0.10124468  0.49986803  0.69934449     0.35500
C511        C  0.95132654  0.47370497  0.21780605    -0.26200
C512        C  0.99919064  0.50749317  0.19297904    -0.14300
C513        C  0.04534472  0.53422528  0.22394569     0.36300
C514        C  0.04212541  0.52685413  0.27886641    -0.25700
C515        C  0.99422662  0.49311883  0.30365625    -0.14900
C516        C  0.94813307  0.46623398  0.27270148     0.37400
N517        N  0.89766273  0.43125555  0.29540419    -0.89200
H518        H  0.91616253  0.45226250  0.19406228     0.18500
H519        H  0.07727257  0.54826277  0.30264483     0.18500
N520        N  0.09590968  0.56879031  0.20122625    -0.88200
H521        H  0.87373346  0.44781888  0.28921142     0.35900
H522        H  0.89995754  0.42741814  0.33618801     0.41000
H523        H  0.09364836  0.57234253  0.16039558     0.40600
H524        H  0.11957797  0.55197253  0.20768797     0.35500
C525        C  0.94752041  0.28648839  0.02607524    -0.26200
C526        C  0.99411987  0.33111416  0.01036393    -0.14300
C527        C  0.03987313  0.32752984  0.00283037     0.36300
C528        C  0.03747578  0.27907774  0.01021511    -0.25700
C529        C  0.99058573  0.23362958  0.02505814    -0.14900
C530        C  0.94511027  0.23780611  0.03368074     0.37400
N531        N  0.89650133  0.19280577  0.04950096    -0.89200
H532        H  0.91287157  0.28986658  0.03268997     0.18500
H533        H  0.07280085  0.27705928  0.00321429     0.18500
N534        N  0.08949660  0.37209992  0.98842392    -0.88200
H535        H  0.86666594  0.20229138  0.05219858     0.35900
H536        H  0.90187899  0.18239321  0.08760972     0.41000
H537        H  0.08738774  0.40645722  0.98519520     0.40600
H538        H  0.09936795  0.36475237  0.95097039     0.35500
C539        C  0.95867409  0.67159333  0.96996395    -0.26200
C540        C  0.00376284  0.67037476  0.98619936    -0.14300
C541        C  0.05110596  0.71821116  0.99418520     0.36300
C542        C  0.05161199  0.76590262  0.98736741    -0.25700
C543        C  0.00601028  0.76734182  0.97313719    -0.14900
C544        C  0.95932701  0.71948185  0.96347030     0.37400
N545        N  0.91257620  0.71925547  0.94673485    -0.89200
H546        H  0.92268600  0.63506018  0.96241480     0.18500
H547        H  0.08779770  0.80217325  0.99508127     0.18500
N548        N  0.09938097  0.72006483  0.00877596    -0.88200
H549        H  0.88301815  0.69753902  0.97418693     0.35900
H550        H  0.90104871  0.69992193  0.91034395     0.41000
H551        H  0.09517007  0.68267933  0.01149716     0.40600
H552        H  0.10971577  0.73666761  0.04648855     0.35500
loop_ 
_geom_bond_atom_site_label_1 
_geom_bond_atom_site_label_2 
_geom_bond_distance 
_geom_bond_site_symmetry_2 
_ccdc_geom_bond_type 
N1            C6   1.353   1_655  A
N1            C5   1.352   1_655  A
N1           H33   1.038       .  S
N2            C9   1.351       .  A
N2           C10   1.352       .  A
N3            C8   1.353   1_655  A
N3            C7   1.353   1_655  A
N3           H34   1.037       .  S
N4           C11   1.353   1_455  A
N4           C12   1.352   1_455  A
C5           C13   1.387       .  A
C5           C21   1.414   1_455  A
C6           C22   1.414       .  A
C6           C14   1.388       .  A
C7           C15   1.387       .  A
C7           C24   1.414   1_455  A
C8           C23   1.414       .  A
C8           C16   1.387       .  A
C9           C21   1.415   1_556  A
C9           C17   1.386       .  A
C10          C24   1.414       .  A
C10          C18   1.385       .  A
C11          C19   1.386       .  A
C11          C22   1.416   1_655  A
C12          C20   1.386       .  A
C12          C23   1.416   1_654  A
C13          C14   1.372       .  A
C13          H25   1.082       .  S
C14          H26   1.082       .  S
C15          C16   1.372       .  A
C15          H27   1.082       .  S
C16          H28   1.082       .  S
C17          C18   1.377       .  A
C17          H29   1.082       .  S
C18          H30   1.082       .  S
C19          C20   1.378       .  A
C19          H31   1.082       .  S
C20          H32   1.082       .  S
C21         C526   1.486       .  S
C22         C512   1.488   1_455  S
C23         C540   1.488       .  S
C24         C501   1.488       .  S
N35          C40   1.354       .  A
N35          C39   1.354   1_655  A
N35          H67   1.036       .  S
N36          C43   1.351       .  A
N36          C44   1.351       .  A
N37          C42   1.353   1_655  A
N37          C41   1.354   1_655  A
N37          H68   1.038       .  S
N38          C45   1.351       .  A
N38          C46   1.351       .  A
C39          C47   1.387       .  A
C39          C55   1.418   1_455  A
C40          C56   1.418       .  A
C40          C48   1.387   1_655  A
C41          C49   1.386       .  A
C41          C58   1.417   1_455  A
C42          C57   1.417   1_455  A
C42          C50   1.387       .  A
C43          C55   1.412       .  A
C43          C51   1.387       .  A
C44          C58   1.411       .  A
C44          C52   1.386       .  A
C45          C53   1.387       .  A
C45          C56   1.412       .  A
C46          C54   1.386       .  A
C46          C57   1.412       .  A
C47          C48   1.379       .  A
C47          H59   1.082       .  S
C48          H60   1.082       .  S
C49          C50   1.380       .  A
C49          H61   1.082       .  S
C50          H62   1.082       .  S
C51          C52   1.367       .  A
C51          H63   1.082       .  S
C52          H64   1.082       .  S
C53          C54   1.368       .  A
C53          H65   1.082       .  S
C54          H66   1.082       .  S
C55         C473   1.486       .  S
C56         C515   1.487       .  S
C57         C487   1.486       .  S
C58         C498   1.487       .  S
O69         Mg71   2.154   1_455  S
O69         Mg77   2.155   1_554  S
O69         C104   1.235       .  S
C70         H109   1.081       .  S
C70          O83   1.234       .  S
C70         O107   1.269       .  A
Mg71        O100   2.151   1_554  S
Mg71        O115   2.302   1_554  S
Mg71        O111   2.263       .  S
Mg71         O82   2.302       .  S
O72        Mg114   2.159   1_554  S
O72         Mg97   2.140       .  S
O72          C93   1.234       .  S
O73         C104   1.270       .  A
O73         Mg97   2.306   1_565  S
C74         C459   1.490       .  S
C74          O76   1.273       .  A
C74          O88   1.271   1_565  A
O75         C103   1.269       .  A
O75         Mg77   2.300   1_655  S
O76        Mg108   2.272       .  S
Mg77         O83   2.160   1_565  S
Mg77         O91   2.273       .  S
Mg77         O79   2.298   1_556  S
C78         C529   1.494       .  S
C78         O116   1.270       .  A
C78          O84   1.273   1_655  A
O79          C86   1.275   1_565  A
H80          C93   1.081       .  S
C81         H106   1.081       .  S
C81          O95   1.235       .  S
C81          O96   1.269       .  A
O82         C105   1.269       .  A
O83         Mg97   2.159   1_556  S
O84        Mg114   2.289   1_554  S
C85         C417   1.495       .  S
C85          O98   1.269       .  A
C85          O90   1.276       .  A
C86         C442   1.490       .  S
C86         O113   1.270       .  A
Mg87         O94   2.151   1_545  S
Mg87         O95   2.155   1_554  S
Mg87         O88   2.278   1_554  S
Mg87         O89   2.299       .  S
Mg87        O116   2.267       .  S
O89          C93   1.269   1_655  A
O90         Mg97   2.312   1_556  S
O91         C110   1.273       .  A
O92         C112   1.275       .  A
O92        Mg108   2.295   1_554  S
O94        Mg108   2.159   1_554  S
O94         C105   1.235       .  S
O95        Mg114   2.143   1_655  S
O96        Mg108   2.297   1_545  S
Mg97        O113   2.250       .  S
O98        Mg114   2.252       .  S
H99         C104   1.081       .  S
O100       Mg108   2.148       .  S
O100        C103   1.235       .  S
H101        C103   1.081       .  S
H102        C105   1.081       .  S
O107       Mg114   2.300       .  S
C110        C543   1.487       .  S
C110        O115   1.274   1_455  A
O111        C112   1.271       .  A
C112        C431   1.492       .  S
O117       Mg119   2.140   1_455  S
O117       Mg125   2.153       .  S
O117        C152   1.234       .  S
C118        H157   1.081       .  S
C118        O131   1.234       .  S
C118        O155   1.269       .  A
Mg119       O148   2.161       .  S
Mg119       O163   2.292       .  S
Mg119       O159   2.243       .  S
Mg119       O130   2.294       .  S
O120       Mg162   2.159       .  S
O120       Mg145   2.153       .  S
O120        C141   1.235       .  S
O121        C152   1.269       .  A
O121       Mg145   2.299   1_565  S
C122        C403   1.490       .  S
C122        O124   1.271       .  A
C122        O136   1.277   1_565  A
O123        C151   1.269   1_455  A
O123       Mg125   2.297       .  S
O124       Mg156   2.254       .  S
Mg125       O131   2.149   1_565  S
Mg125       O139   2.263       .  S
Mg125       O127   2.291       .  S
C126        C470   1.488       .  S
C126        O164   1.272       .  A
C126        O132   1.274   1_655  A
O127        C134   1.273   1_565  A
H128        C141   1.081       .  S
C129        H154   1.081       .  S
C129        O143   1.235       .  S
C129        O144   1.270       .  A
O130        C153   1.268       .  A
O131       Mg145   2.153       .  S
O132       Mg162   2.304       .  S
C133        C358   1.496       .  S
C133        O146   1.272       .  A
C133        O138   1.276       .  A
C134        C386   1.491       .  S
C134        O161   1.272       .  A
Mg135       O142   2.144   1_545  S
Mg135       O143   2.160       .  S
Mg135       O136   2.321       .  S
Mg135       O137   2.301   1_655  S
Mg135       O164   2.256       .  S
O137        C141   1.270       .  A
O138       Mg145   2.305       .  S
O139        C158   1.270       .  A
O140        C160   1.276       .  A
O140       Mg156   2.317       .  S
O142       Mg156   2.154       .  S
O142        C153   1.234       .  S
O143       Mg162   2.162   1_655  S
O144       Mg156   2.304   1_545  S
Mg145       O161   2.266       .  S
O146       Mg162   2.272       .  S
H147        C152   1.081       .  S
O148       Mg156   2.145       .  S
O148        C151   1.235       .  S
H149        C151   1.081       .  S
H150        C153   1.081       .  S
O155       Mg162   2.300       .  S
C158        C484   1.493       .  S
C158        O163   1.273   1_455  A
O159        C160   1.270       .  A
C160        C372   1.485       .  S
N165        C170   1.355   1_545  A
N165        C169   1.355   1_545  A
N165        H197   1.035       .  S
N166        C173   1.352       .  A
N166        C174   1.351       .  A
N167        C172   1.354       .  A
N167        C171   1.354       .  A
N167        H198   1.036       .  S
N168        C175   1.352       .  A
N168        C176   1.352       .  A
C169        C177   1.387       .  A
C169        C185   1.422   1_564  A
C170        C186   1.421   1_565  A
C170        C178   1.386       .  A
C171        C179   1.387   1_545  A
C171        C188   1.421       .  A
C172        C187   1.421   1_556  A
C172        C180   1.388   1_545  A
C173        C185   1.415       .  A
C173        C181   1.387       .  A
C174        C188   1.415       .  A
C174        C182   1.388       .  A
C175        C183   1.387       .  A
C175        C186   1.415       .  A
C176        C184   1.387       .  A
C176        C187   1.416       .  A
C177        C178   1.379       .  A
C177        H189   1.082       .  S
C178        H190   1.082       .  S
C179        C180   1.379       .  A
C179        H191   1.082       .  S
C180        H192   1.082       .  S
C181        C182   1.367       .  A
C181        H193   1.082       .  S
C182        H194   1.083       .  S
C183        C184   1.367       .  A
C183        H195   1.082       .  S
C184        H196   1.082       .  S
C185        C456   1.490       .  S
C186        C344   1.490       .  S
C187        C445   1.489       .  S
C188        C330   1.487       .  S
N199        C204   1.353       .  A
N199        C203   1.353       .  A
N199        H231   1.038   1_565  S
N200        C207   1.351   1_565  A
N200        C208   1.353   1_565  A
N201        C206   1.351       .  A
N201        C205   1.351       .  A
N201        H232   1.038   1_565  S
N202        C209   1.353       .  A
N202        C210   1.352       .  A
C203        C211   1.387       .  A
C203        C219   1.416   1_565  A
C204        C220   1.416       .  A
C204        C212   1.387       .  A
C205        C213   1.388       .  A
C205        C222   1.413       .  A
C206        C221   1.411       .  A
C206        C214   1.387       .  A
C207        C219   1.416       .  A
C207        C215   1.387       .  A
C208        C222   1.415   1_545  A
C208        C216   1.386       .  A
C209        C217   1.386   1_565  A
C209        C220   1.416       .  A
C210        C218   1.386   1_565  A
C210        C221   1.415       .  A
C211        C212   1.372       .  A
C211        H223   1.082       .  S
C212        H224   1.082       .  S
C213        C214   1.372       .  A
C213        H225   1.082       .  S
C214        H226   1.082       .  S
C215        C216   1.377       .  A
C215        H227   1.082       .  S
C216        H228   1.082       .  S
C217        C218   1.377       .  A
C217        H229   1.082       .  S
C218        H230   1.082       .  S
C219        C400   1.488       .  S
C220        C347   1.490       .  S
C221        C389   1.484       .  S
C222        C333   1.486       .  S
N233        C238   1.356       .  A
N233        C237   1.354       .  A
N233        H265   1.038       .  S
N234        C241   1.351       .  A
N234        C242   1.352       .  A
N235        C240   1.353       .  A
N235        C239   1.353       .  A
N235        H266   1.036       .  S
N236        C243   1.351       .  A
N236        C244   1.350       .  A
C237        C245   1.388       .  A
C237        C253   1.420   1_554  A
C238        C254   1.419       .  A
C238        C246   1.386       .  A
C239        C247   1.387       .  A
C239        C256   1.418       .  A
C240        C255   1.417   1_556  A
C240        C248   1.387       .  A
C241        C253   1.414       .  A
C241        C249   1.388       .  A
C242        C256   1.413       .  A
C242        C250   1.386       .  A
C243        C251   1.386       .  A
C243        C254   1.411       .  A
C244        C252   1.387       .  A
C244        C255   1.411       .  A
C245        C246   1.380       .  A
C245        H257   1.082       .  S
C246        H258   1.082       .  S
C247        C248   1.379       .  A
C247        H259   1.082       .  S
C248        H260   1.082       .  S
C249        C250   1.370       .  A
C249        H261   1.082       .  S
C250        H262   1.083       .  S
C251        C252   1.368       .  A
C251        H263   1.082       .  S
C252        H264   1.082       .  S
C253        C414   1.489       .  S
C254        C319   1.492       .  S
C255        C428   1.484       .  S
C256        C302   1.487       .  S
N267        C272   1.354       .  A
N267        C271   1.354       .  A
N267        H299   1.037       .  S
N268        C275   1.352       .  A
N268        C276   1.352       .  A
N269        C274   1.354       .  A
N269        C273   1.355       .  A
N269        H300   1.035       .  S
N270        C277   1.351       .  A
N270        C278   1.351       .  A
C271        C279   1.386       .  A
C271        C287   1.417       .  A
C272        C288   1.418       .  A
C272        C280   1.387       .  A
C273        C281   1.387       .  A
C273        C290   1.421       .  A
C274        C289   1.421       .  A
C274        C282   1.388       .  A
C275        C287   1.412       .  A
C275        C283   1.385       .  A
C276        C290   1.415       .  A
C276        C284   1.388       .  A
C277        C285   1.387       .  A
C277        C288   1.413       .  A
C278        C286   1.387       .  A
C278        C289   1.414       .  A
C279        C280   1.377       .  A
C279        H291   1.082       .  S
C280        H292   1.082       .  S
C281        C282   1.380       .  A
C281        H293   1.082       .  S
C282        H294   1.082       .  S
C283        C284   1.367       .  A
C283        H295   1.082       .  S
C284        H296   1.082       .  S
C285        C286   1.370       .  A
C285        H297   1.083       .  S
C286        H298   1.082       .  S
C287        C361   1.488       .  S
C288        C305   1.488       .  S
C289        C375   1.487       .  S
C290        C316   1.492       .  S
C301        C302   1.405       .  A
C301        C306   1.403       .  A
C301        H308   1.084       .  S
C302        C303   1.414       .  A
C303        C304   1.399       .  A
C303        N310   1.438       .  S
C304        C305   1.403       .  A
C304        H309   1.084       .  S
C305        C306   1.415       .  A
C306        N307   1.438       .  S
N307        H311   1.046       .  S
N307        H312   1.043       .  S
N310        H313   1.043       .  S
N310        H314   1.045       .  S
C315        C316   1.401       .  A
C315        C320   1.402       .  A
C315        H322   1.084       .  S
C316        C317   1.419       .  A
C317        C318   1.403       .  A
C317        N324   1.439       .  S
C318        C319   1.402       .  A
C318        H323   1.084       .  S
C319        C320   1.419       .  A
C320        N321   1.439       .  S
N321        H325   1.045       .  S
N321        H326   1.043       .  S
N324        H327   1.044       .  S
N324        H328   1.045       .  S
C329        C330   1.403   1_565  A
C329        C334   1.400       .  A
C329        H336   1.084       .  S
C330        C331   1.415       .  A
C331        C332   1.402       .  A
C331        N338   1.438       .  S
C332        C333   1.403   1_545  A
C332        H337   1.084       .  S
C333        C334   1.415       .  A
C334        N335   1.438       .  S
N335        H339   1.045       .  S
N335        H340   1.044       .  S
N338        H341   1.043       .  S
N338        H342   1.045       .  S
C343        C344   1.404   1_565  A
C343        C348   1.404       .  A
C343        H350   1.084       .  S
C344        C345   1.416       .  A
C345        C346   1.402       .  A
C345        N352   1.438       .  S
C346        C347   1.402   1_545  A
C346        H351   1.084       .  S
C347        C348   1.417       .  A
C348        N349   1.438       .  S
N349        H353   1.045       .  S
N349        H354   1.044       .  S
N352        H355   1.043       .  S
N352        H356   1.045       .  S
C357        C358   1.410       .  A
C357        C362   1.402       .  A
C357        H364   1.084       .  S
C358        C359   1.419       .  A
C359        C360   1.407       .  A
C359        N366   1.438       .  S
C360        C361   1.401       .  A
C360        H365   1.084       .  S
C361        C362   1.413       .  A
C362        N363   1.439       .  S
N363        H367   1.045       .  S
N363        H368   1.043       .  S
N366        H369   1.046       .  S
N366        H370   1.045       .  S
C371        C372   1.406       .  A
C371        C376   1.398       .  A
C371        H378   1.084       .  S
C372        C373   1.413       .  A
C373        C374   1.408       .  A
C373        N380   1.437       .  S
C374        C375   1.404       .  A
C374        H379   1.084       .  S
C375        C376   1.413       .  A
C376        N377   1.439       .  S
N377        H381   1.045       .  S
N377        H382   1.043       .  S
N380        H383   1.046       .  S
N380        H384   1.046       .  S
C385        C386   1.412   1_565  A
C385        C390   1.403       .  A
C385        H392   1.084       .  S
C386        C387   1.416       .  A
C387        C388   1.403       .  A
C387        N394   1.432       .  S
C388        C389   1.399   1_545  A
C388        H393   1.084       .  S
C389        C390   1.403       .  A
C390        N391   1.432       .  S
N391        H395   1.046       .  S
N391        H396   1.045       .  S
N394        H397   1.046       .  S
N394        H398   1.045       .  S
C399        C400   1.398   1_565  A
C399        C404   1.400       .  A
C399        H406   1.084       .  S
C400        C401   1.416       .  A
C401        C402   1.406       .  A
C401        N408   1.438       .  S
C402        C403   1.407   1_545  A
C402        H407   1.084       .  S
C403        C404   1.415       .  A
C404        N405   1.432       .  S
N405        H409   1.046       .  S
N405        H410   1.045       .  S
N408        H411   1.043       .  S
N408        H412   1.046       .  S
C413        C414   1.400       .  A
C413        C418   1.407       .  A
C413        H420   1.084       .  S
C414        C415   1.407       .  A
C415        C416   1.406       .  A
C415        N422   1.437       .  S
C416        C417   1.409       .  A
C416        H421   1.083       .  S
C417        C418   1.422       .  A
C418        N419   1.439       .  S
N419        H423   1.046       .  S
N419        H424   1.046   1_556  S
N422        H425   1.045       .  S
N422        H426   1.046       .  S
C427        C428   1.401       .  A
C427        C432   1.406       .  A
C427        H434   1.084       .  S
C428        C429   1.412   1_554  A
C429        C430   1.399   1_556  A
C429        N436   1.439       .  S
C430        C431   1.410       .  A
C430        H435   1.084       .  S
C431        C432   1.418       .  A
C432        N433   1.438       .  S
N433        H437   1.046       .  S
N433        H438   1.046       .  S
N436        H439   1.043       .  S
N436        H440   1.045       .  S
C441        C442   1.409   1_565  A
C441        C446   1.402       .  A
C441        H448   1.084       .  S
C442        C443   1.416       .  A
C443        C444   1.402       .  A
C443        N450   1.433       .  S
C444        C445   1.401       .  A
C444        H449   1.084       .  S
C445        C446   1.416   1_545  A
C446        N447   1.438       .  S
N447        H451   1.046       .  S
N447        H452   1.043   1_554  S
N450        H453   1.046   1_554  S
N450        H454   1.045       .  S
C455        C456   1.401       .  A
C455        C460   1.405       .  A
C455        H462   1.084       .  S
C456        C457   1.415   1_545  A
C457        C458   1.402       .  A
C457        N464   1.438       .  S
C458        C459   1.407       .  A
C458        H463   1.084       .  S
C459        C460   1.418   1_565  A
C460        N461   1.438       .  S
N461        H465   1.046       .  S
N461        H466   1.046       .  S
N464        H467   1.042       .  S
N464        H468   1.046   1_556  S
C469        C470   1.407       .  A
C469        C474   1.398       .  A
C469        H476   1.084       .  S
C470        C471   1.416   1_655  A
C471        C472   1.408       .  A
C471        N478   1.438       .  S
C472        C473   1.403   1_455  A
C472        H477   1.084       .  S
C473        C474   1.413       .  A
C474        N475   1.439       .  S
N475        H479   1.045       .  S
N475        H480   1.043       .  S
N478        H481   1.045       .  S
N478        H482   1.046       .  S
C483        C484   1.410   1_655  A
C483        C488   1.400       .  A
C483        H490   1.084       .  S
C484        C485   1.419       .  A
C485        C486   1.407       .  A
C485        N492   1.438       .  S
C486        C487   1.401   1_455  A
C486        H491   1.084       .  S
C487        C488   1.413       .  A
C488        N489   1.439       .  S
N489        H493   1.045       .  S
N489        H494   1.043       .  S
N492        H495   1.046       .  S
N492        H496   1.046       .  S
C497        C498   1.402       .  A
C497        C502   1.402       .  A
C497        H504   1.084       .  S
C498        C499   1.417   1_655  A
C499        C500   1.402       .  A
C499        N506   1.438       .  S
C500        C501   1.403   1_455  A
C500        H505   1.084       .  S
C501        C502   1.416       .  A
C502        N503   1.438       .  S
N503        H507   1.045       .  S
N503        H508   1.043       .  S
N506        H509   1.043       .  S
N506        H510   1.046       .  S
C511        C512   1.403       .  A
C511        C516   1.401       .  A
C511        H518   1.084       .  S
C512        C513   1.416   1_655  A
C513        C514   1.402       .  A
C513        N520   1.438       .  S
C514        C515   1.403   1_455  A
C514        H519   1.084       .  S
C515        C516   1.415       .  A
C516        N517   1.438       .  S
N517        H521   1.046       .  S
N517        H522   1.043       .  S
N520        H523   1.043       .  S
N520        H524   1.046       .  S
C525        C526   1.401       .  A
C525        C530   1.407       .  A
C525        H532   1.084       .  S
C526        C527   1.412   1_655  A
C527        C528   1.400       .  A
C527        N534   1.439   1_554  S
C528        C529   1.410   1_455  A
C528        H533   1.083       .  S
C529        C530   1.418       .  A
C530        N531   1.438       .  S
N531        H535   1.045       .  S
N531        H536   1.046       .  S
N534        H537   1.043       .  S
N534        H538   1.045       .  S
C539        C540   1.403   1_655  A
C539        C544   1.405       .  A
C539        H546   1.084       .  S
C540        C541   1.415       .  A
C541        C542   1.402       .  A
C541        N548   1.439   1_556  S
C542        C543   1.407       .  A
C542        H547   1.084       .  S
C543        C544   1.413   1_455  A
C544        N545   1.433       .  S
N545        H549   1.045       .  S
N545        H550   1.046       .  S
N548        H551   1.043       .  S
N548        H552   1.046       .  S
