geometry optimzed in LAMMPS
_audit_creation_date              2020-12-01 
_audit_creation_method            'lammps2cif' 
_symmetry_space_group_name_H-M    'P1' 
_symmetry_Int_Tables_number       1 
_symmetry_cell_setting            triclinic 
loop_ 
_symmetry_equiv_pos_as_xyz 
  x,y,z 
_cell_length_a                    32.75964675 
_cell_length_b                    32.78661676115401 
_cell_length_c                    25.832327384752553 
_cell_angle_alpha                 89.05991805246207 
_cell_angle_beta                  91.74304157760379 
_cell_angle_gamma                 119.81016212024274 
loop_ 
_atom_site_label 
_atom_site_type_symbol 
_atom_site_fract_x 
_atom_site_fract_y 
_atom_site_fract_z 
_atom_site_charge 
C1          C  0.66724625  0.33515784  0.12248104     0.30100
C2          C  0.66509376  0.33947677  0.01632054     0.30100
C3          C  0.69166158  0.31194519  0.09419841    -0.06100
C4          C  0.61780791  0.31054493  0.09604841    -0.06900
C5          C  0.68989983  0.38476414  0.09858907    -0.06800
C6          C  0.69105640  0.31534807  0.04034063    -0.06100
C7          C  0.61681312  0.31322483  0.04215535    -0.06900
C8          C  0.68812303  0.38711827  0.04476721    -0.06800
C9          C  0.71311597  0.29259064  0.02110022    -0.32200
N10         N  0.72600112  0.27396161  0.06130054     0.14300
C11         C  0.71225222  0.28453674  0.10595679    -0.32200
H12         H  0.71671238  0.27256209  0.14382440     0.16300
C13         C  0.57011552  0.29031593  0.02615593    -0.31100
N14         N  0.54298107  0.27295069  0.06835801     0.13100
C15         C  0.57153195  0.28502432  0.11125895    -0.31100
C16         C  0.70547972  0.43388824  0.03217138    -0.31400
N17         N  0.71980826  0.45993910  0.07626772     0.13600
H18         H  0.70738975  0.44830392  0.99380421     0.16200
C19         C  0.71036213  0.43022095  0.11717037    -0.31400
H20         H  0.71689959  0.44076834  0.15742622     0.16200
H21         H  0.55934381  0.27510339  0.15037094     0.16200
H22         H  0.71860992  0.28901900  0.98069668     0.16300
H23         H  0.55646497  0.28678792  0.98683007     0.16200
C24         C  0.66895763  0.33422042  0.51623586     0.30100
C25         C  0.67007421  0.33687438  0.62248381     0.30100
C26         C  0.69103539  0.30789963  0.54463817    -0.06100
C27         C  0.69532443  0.38306522  0.54089712    -0.06900
C28         C  0.62040071  0.31222691  0.54137438    -0.06800
C29         C  0.69243001  0.31002917  0.59856076    -0.06100
C30         C  0.69535452  0.38513143  0.59472495    -0.06900
C31         C  0.62085092  0.31408775  0.59533492    -0.06800
C32         C  0.71312249  0.28442595  0.61666547    -0.32200
N33         N  0.72272826  0.26571873  0.57532454     0.14300
C34         C  0.70848353  0.27898521  0.53151566    -0.32200
H35         H  0.71043970  0.26770648  0.49302372     0.16300
C36         C  0.71664273  0.43248364  0.60715585    -0.31100
N37         N  0.73156822  0.45818513  0.56294507     0.13100
C38         C  0.71850321  0.42828884  0.52229987    -0.31100
C39         C  0.57432802  0.29266519  0.60984989    -0.31400
N40         N  0.54628337  0.27717774  0.56662081     0.13600
H41         H  0.56149654  0.28800725  0.64881014     0.16200
C42         C  0.57382102  0.28839365  0.52474176    -0.31400
H43         H  0.56063562  0.27868822  0.48535036     0.16200
H44         H  0.72455226  0.43876460  0.48204292     0.16200
H45         H  0.71969404  0.27892546  0.65677530     0.16300
H46         H  0.72068826  0.44766230  0.64508583     0.16200
C47         C  0.33155059  0.66505365  0.98676328     0.30100
C48         C  0.33278398  0.66425968  0.88052613     0.30100
C49         C  0.30352347  0.68470045  0.95787054    -0.06100
C50         C  0.38071354  0.69279711  0.96262754    -0.06900
C51         C  0.31264346  0.61641159  0.96151050    -0.06800
C52         C  0.30447700  0.68484657  0.90420059    -0.06100
C53         C  0.38128568  0.69193526  0.90860249    -0.06900
C54         C  0.31285076  0.61574843  0.90740620    -0.06800
C55         C  0.27959121  0.70628776  0.88623121    -0.32200
N56         N  0.26311691  0.71838593  0.92762912     0.14300
C57         C  0.27752781  0.70518582  0.97149711    -0.32200
H58         H  0.27084690  0.71140753  0.01054826     0.16300
C59         C  0.42797329  0.71410504  0.89483441    -0.31100
N60         N  0.45543995  0.72982458  0.93836122     0.13100
C61         C  0.42719418  0.71612941  0.97989905    -0.31100
C62         C  0.29559808  0.56939624  0.89312919    -0.31400
N63         N  0.28497073  0.54263438  0.93661285     0.13600
H64         H  0.29089195  0.55567546  0.85430028     0.16200
C65         C  0.29581743  0.57082181  0.97845980    -0.31400
H66         H  0.29099693  0.55854185  0.01812344     0.16200
H67         H  0.44014662  0.72131667  0.01957796     0.16200
H68         H  0.27408482  0.71279522  0.84611846     0.16300
H69         H  0.44135907  0.71829104  0.85617531     0.16200
C70         C  0.33053538  0.66523857  0.38016633     0.30100
C71         C  0.33502317  0.66580146  0.48648784     0.30100
C72         C  0.30571293  0.68808095  0.40714444    -0.06100
C73         C  0.30961020  0.61650678  0.40664318    -0.06900
C74         C  0.38066247  0.69058696  0.40527333    -0.06800
C75         C  0.30840995  0.68853539  0.46086413    -0.06100
C76         C  0.31167976  0.61700356  0.46073983    -0.06900
C77         C  0.38291652  0.69054126  0.45938464    -0.06800
C78         C  0.28618503  0.71191235  0.47774080    -0.32200
N79         N  0.26963270  0.72547771  0.43587910     0.14300
C80         C  0.28112538  0.71082230  0.39243042    -0.32200
H81         H  0.27359513  0.71758459  0.35314992     0.16300
C82         C  0.29293505  0.57107457  0.47701999    -0.31100
N83         N  0.27921586  0.54287509  0.43486710     0.13100
C84         C  0.29005181  0.56998492  0.39167661    -0.31100
C85         C  0.42976131  0.70832246  0.47386315    -0.31400
N86         N  0.45593665  0.72079861  0.43064045     0.13600
H87         H  0.44402377  0.71146176  0.51283744     0.16200
C88         C  0.42634964  0.70926153  0.38867778    -0.31400
H89         H  0.43750883  0.71261993  0.34911530     0.16200
H90         H  0.28339170  0.55640790  0.35260659     0.16200
H91         H  0.28270594  0.71897211  0.51767307     0.16300
H92         H  0.28941619  0.55850762  0.51650117     0.16200
O93         O  0.06284038  0.97835155  0.02716933    -0.88300
C94         C  0.06804347  0.06942427  0.91391493     0.87800
Mg95       Mg  0.00986963  0.90585714  0.02789981     1.58100
O96         O  0.02110982  0.08082824  0.03013248    -0.88000
O97         O  0.08355205  0.03873789  0.07795914    -0.75300
C98         C  0.80719648  0.90267027  0.97244234     0.92800
O99         O  0.03528495  0.95679702  0.90647171    -0.75100
O100        O  0.82713189  0.87834087  0.96550245    -0.82700
Mg101      Mg  0.10013609  0.00641931  0.95616915     1.58000
C102        C  0.89969116  0.09453840  0.02512176     0.92700
O103        O  0.17130247  0.05702776  0.99798401    -0.80900
H104        H  0.02835521  0.09524887  0.10584314    -0.06300
C105        C  0.92612103  0.00332646  0.91823733     0.87700
O106        O  0.96431359  0.92136206  0.08139903    -0.75400
O107        O  0.07835188  0.05873099  0.95650847    -0.88200
O108        O  0.94135832  0.11475210  0.00749510    -0.81000
C109        C  0.09166912  0.19191877  0.96822033     0.92800
C110        C  0.19237939  0.09857203  0.01679865     0.92700
Mg111      Mg  0.89948925  0.99440350  0.03210568     1.58000
O112        O  0.82988481  0.94453741  0.98987651    -0.80900
O113        O  0.96314784  0.04393703  0.08321714    -0.75200
O114        O  0.11154854  0.16847884  0.98260070    -0.81000
O115        O  0.12142622  0.94963658  0.95367514    -0.82700
O116        O  0.88788509  0.83090225  0.00938065    -0.81000
C117        C  0.00531255  0.07478135  0.07411145     0.87100
O118        O  0.92135394  0.94205826  0.03301744    -0.88200
O119        O  0.93732125  0.02239932  0.96126568    -0.88300
O120        O  0.91586431  0.96088464  0.91176889    -0.75300
Mg121      Mg  0.09390389  0.10020438  0.02603897     1.58000
O122        O  0.04704380  0.17276044  0.96340422    -0.82700
H123        H  0.07463759  0.97602003  0.10318943    -0.06400
O124        O  0.97760419  0.91839419  0.95990062    -0.88000
H125        H  0.97021712  0.90522168  0.88389435    -0.06300
H126        H  0.91590039  0.93584434  0.10995019    -0.06400
C127        C  0.99332189  0.92535317  0.91575038     0.87100
C128        C  0.07438544  0.99683797  0.07042067     0.87700
C129        C  0.93259830  0.93279929  0.07591194     0.87700
H130        H  0.92662541  0.02386201  0.88483641    -0.06400
O131        O  0.03676253  0.08148172  0.90878300    -0.75400
Mg132      Mg  0.90473371  0.89905036  0.96429879     1.58000
H133        H  0.08529777  0.06732456  0.87986071    -0.06400
C134        C  0.09825109  0.90542581  0.96211258     0.92700
O135        O  0.95300966  0.82862626  0.03191451    -0.82700
C136        C  0.90833563  0.80885173  0.02715888     0.92800
O137        O  0.17073869  0.12103500  0.02469231    -0.82700
Mg138      Mg  0.99016065  0.09537987  0.96261874     1.58200
O139        O  0.05760172  0.88584658  0.98229148    -0.81000
O140        O  0.87677351  0.05022360  0.03264840    -0.82700
O141        O  0.97994045  0.06298746  0.46775347    -0.88300
C142        C  0.07126667  0.07128927  0.58393825     0.87800
Mg143      Mg  0.90638007  0.01077180  0.46713031     1.58100
O144        O  0.08172521  0.02157841  0.46893787    -0.88000
O145        O  0.04097989  0.08371120  0.41918190    -0.75300
C146        C  0.89987760  0.80874271  0.52263423     0.92800
O147        O  0.95962594  0.04001015  0.58839929    -0.75100
O148        O  0.87654036  0.82951390  0.53056129    -0.82700
Mg149      Mg  0.00918617  0.10299075  0.53822259     1.58000
C150        C  0.09194628  0.89972318  0.47403877     0.92700
O151        O  0.06012456  0.17209600  0.49570269    -0.80900
H152        H  0.09404387  0.02693592  0.39314765    -0.06300
C153        C  0.00264547  0.92777746  0.57935245     0.87700
O154        O  0.91891881  0.96292291  0.41385560    -0.75400
O155        O  0.06133037  0.08105656  0.54065349    -0.88200
O156        O  0.11208765  0.94090441  0.49368166    -0.81000
C157        C  0.19357742  0.09055270  0.53433135     0.92800
C158        C  0.10221802  0.19328837  0.47931977     0.92700
Mg159      Mg  0.99222801  0.89990369  0.46515764     1.58000
O160        O  0.94162493  0.83062193  0.50565080    -0.80900
O161        O  0.04188418  0.96292329  0.41554122    -0.75200
O162        O  0.17212757  0.11207885  0.51810575    -0.81000
O163        O  0.95299851  0.12548080  0.53860253    -0.82700
O164        O  0.82999510  0.88990592  0.48741846    -0.81000
C165        C  0.07401338  0.00480981  0.42488264     0.87100
O166        O  0.94020343  0.92172860  0.46377358    -0.88200
O167        O  0.02101959  0.93889747  0.53652972    -0.88300
O168        O  0.96041793  0.91787626  0.58575113    -0.75300
Mg169      Mg  0.10307608  0.09476033  0.47265051     1.58000
O170        O  0.17210896  0.04599069  0.53950372    -0.82700
H171        H  0.97779923  0.07298814  0.39141545    -0.06400
O172        O  0.91961861  0.98038070  0.53599202    -0.88000
H173        H  0.90815460  0.97603653  0.61197414    -0.06300
H174        H  0.93112669  0.91221468  0.38716022    -0.06400
C175        C  0.92774180  0.99778911  0.57980665     0.87100
C176        C  0.99860381  0.07367427  0.42503891     0.87700
C177        C  0.92966893  0.93091287  0.42049930     0.87700
H178        H  0.02365396  0.92815677  0.61263500    -0.06400
O179        O  0.08176575  0.03906519  0.59040411    -0.75400
Mg180      Mg  0.89861903  0.90711122  0.53234782     1.58000
H181        H  0.06961155  0.08973428  0.61741134    -0.06400
C182        C  0.90845594  0.10140921  0.53137733     0.92700
O183        O  0.82803978  0.95459792  0.46384989    -0.82700
C184        C  0.80776483  0.91006721  0.46955291     0.92800
O185        O  0.12538729  0.17201889  0.47370028    -0.82700
Mg186      Mg  0.09430621  0.99077262  0.53751852     1.58200
O187        O  0.88864955  0.05994987  0.51244556    -0.81000
O188        O  0.04771220  0.87692707  0.46461495    -0.82700
C189        C  0.12538338  0.24444356  0.46796981    -0.01200
C190        C  0.10453246  0.27064511  0.48277113    -0.09200
C191        C  0.12728578  0.31922851  0.47543606    -0.18100
C192        C  0.17202121  0.34355244  0.45276175     0.04300
C193        C  0.19230418  0.31670674  0.43582490     0.18500
C194        C  0.16917967  0.26778261  0.44392467    -0.19500
C195        C  0.23572471  0.33891532  0.41134020    -0.20800
C196        C  0.25976552  0.38739399  0.40382321    -0.19300
C197        C  0.24154106  0.41504164  0.42168690     0.19900
C198        C  0.19747924  0.39350510  0.44672634     0.02000
C199        C  0.18146835  0.42306367  0.46602821    -0.14000
C200        C  0.20837958  0.47175315  0.46145152    -0.11700
C201        C  0.25143303  0.49263230  0.43664356     0.01600
C202        C  0.26763014  0.46426314  0.41595899    -0.23900
H203        H  0.07066233  0.25366101  0.50105659     0.09600
H204        H  0.10880017  0.33665360  0.48793614     0.13100
H205        H  0.18554402  0.24791352  0.43171247     0.11900
H206        H  0.25126931  0.31864487  0.39798640     0.13000
H207        H  0.29332040  0.40348159  0.38484356     0.12100
H208        H  0.14894410  0.40984155  0.48610260     0.09200
H209        H  0.19565713  0.49353868  0.47756941     0.12400
H210        H  0.30130986  0.48072622  0.39720753     0.14300
C211        C  0.50664380  0.74487094  0.42960150    -0.01200
C212        C  0.53089746  0.78383629  0.39715709    -0.09200
C213        C  0.58009570  0.81039472  0.39929574    -0.18100
C214        C  0.60685677  0.79830222  0.43371227     0.04300
C215        C  0.58211442  0.75685083  0.46406064     0.18500
C216        C  0.53253627  0.73117897  0.46246893    -0.19500
C217        C  0.60699378  0.74162539  0.49634539    -0.20800
C218        C  0.65587832  0.76725343  0.50018679    -0.19300
C219        C  0.68113153  0.80958480  0.47311355     0.19900
C220        C  0.65707860  0.82595570  0.43962795     0.02000
C221        C  0.68422945  0.87008460  0.41517642    -0.14000
C222        C  0.73293762  0.89706053  0.42445645    -0.11700
C223        C  0.75648881  0.88061686  0.45731278     0.01600
C224        C  0.73025308  0.83633493  0.48070063    -0.23900
H225        H  0.51150673  0.79475280  0.37122181     0.09600
H226        H  0.59619844  0.84020100  0.37359984     0.13100
H227        H  0.51392185  0.70047458  0.48687432     0.11900
H228        H  0.58848634  0.70974414  0.51901897     0.13000
H229        H  0.67399146  0.75452914  0.52573187     0.12100
H230        H  0.66860341  0.88535316  0.38994374     0.09200
H231        H  0.75224455  0.93109297  0.40593174     0.12400
H232        H  0.74786491  0.82337199  0.50671483     0.14300
C233        C  0.24685629  0.75343941  0.43812396    -0.01200
C234        C  0.26338133  0.79051178  0.47352170    -0.09200
C235        C  0.24083413  0.81682837  0.47831162    -0.18100
C236        C  0.20003515  0.80645929  0.44819423     0.04300
C237        C  0.18324627  0.76879743  0.41212963     0.18500
C238        C  0.20712797  0.74321665  0.40681080    -0.19500
C239        C  0.14220346  0.75634922  0.38246326    -0.20800
C240        C  0.11693587  0.77978152  0.38858776    -0.19300
C241        C  0.13244422  0.81689949  0.42387446     0.19900
C242        C  0.17478909  0.83141688  0.45339977     0.02000
C243        C  0.18983922  0.87012190  0.48713128    -0.14000
C244        C  0.16346213  0.89257989  0.49229753    -0.11700
C245        C  0.12086418  0.87722880  0.46462812     0.01600
C246        C  0.10568198  0.83939159  0.43016295    -0.23900
H247        H  0.29420723  0.79925802  0.49772606     0.09600
H248        H  0.25577235  0.84446994  0.50674561     0.13100
H249        H  0.19390902  0.71427953  0.37964889     0.11900
H250        H  0.12908588  0.72772693  0.35490262     0.13000
H251        H  0.08492374  0.76869008  0.36560337     0.12100
H252        H  0.22190331  0.88402143  0.51014701     0.09200
H253        H  0.17609031  0.92159557  0.51925017     0.12400
H254        H  0.07299218  0.82741365  0.40818916     0.14300
C255        C  0.12169836  0.24331052  0.95948460    -0.01200
C256        C  0.17075539  0.26492748  0.96628701    -0.09200
C257        C  0.19928499  0.31361789  0.96199046    -0.18100
C258        C  0.17967906  0.34273692  0.95071004     0.04300
C259        C  0.12995505  0.32069248  0.94343118     0.18500
C260        C  0.10165916  0.27159073  0.94768692    -0.19500
C261        C  0.10860315  0.34780541  0.93246674    -0.20800
C262        C  0.13550115  0.39640651  0.92839527    -0.19300
C263        C  0.18445932  0.41918865  0.93519043     0.19900
C264        C  0.20743634  0.39283792  0.94660946     0.02000
C265        C  0.25708746  0.41796184  0.95368105    -0.14000
C266        C  0.28251283  0.46704054  0.94983700    -0.11700
C267        C  0.25943386  0.49231483  0.93828256     0.01600
C268        C  0.21058661  0.46836225  0.93093498    -0.23900
H269        H  0.18737282  0.24417545  0.97571947     0.09600
H270        H  0.23652699  0.32737559  0.96807288     0.13100
H271        H  0.06379534  0.25549422  0.94265746     0.11900
H272        H  0.07075027  0.33129440  0.92705556     0.13000
H273        H  0.11783813  0.41635885  0.91990569     0.12100
H274        H  0.27723279  0.40080737  0.96256464     0.09200
H275        H  0.32033929  0.48547649  0.95602462     0.12400
H276        H  0.19297734  0.48840957  0.92263069     0.14300
C277        C  0.75581011  0.88143434  0.96215517    -0.01200
C278        C  0.73086631  0.90077431  0.98475533    -0.09200
C279        C  0.68195632  0.87905959  0.97927241    -0.18100
C280        C  0.65612765  0.83711513  0.95048147     0.04300
C281        C  0.68180456  0.81927026  0.92486704     0.18500
C282        C  0.73102696  0.84104921  0.93146552    -0.19500
C283        C  0.65811392  0.77939391  0.89342592    -0.20800
C284        C  0.60931200  0.75612758  0.88777629    -0.19300
C285        C  0.58283819  0.77130151  0.91468470     0.19900
C286        C  0.60581890  0.81190576  0.94668419     0.02000
C287        C  0.57735813  0.82442459  0.97498702    -0.14000
C288        C  0.52832170  0.79727498  0.97220175    -0.11700
C289        C  0.50596961  0.75759097  0.94036885     0.01600
C290        C  0.53338460  0.74526506  0.91091742    -0.23900
H291        H  0.74909600  0.93229013  0.00811471     0.09600
H292        H  0.66540361  0.89595368  0.99808669     0.13100
H293        H  0.75003859  0.82630465  0.91291795     0.11900
H294        H  0.67746458  0.76591737  0.87322577     0.13000
H295        H  0.59207330  0.72526450  0.86331926     0.12100
H296        H  0.59187401  0.85414987  0.00070844     0.09200
H297        H  0.50755108  0.80745742  0.99488288     0.12400
H298        H  0.51608230  0.71433235  0.88657741     0.14300
C299        C  0.23670328  0.74286658  0.92618487    -0.01200
C300        C  0.24860267  0.78079157  0.89239768    -0.09200
C301        C  0.22550019  0.80705178  0.89408292    -0.18100
C302        C  0.18911629  0.79571267  0.92945454     0.04300
C303        C  0.17577645  0.75571924  0.96181071     0.18500
C304        C  0.19983349  0.73024361  0.96028608    -0.19500
C305        C  0.13886784  0.74165563  0.99610468    -0.20800
C306        C  0.11535030  0.76692383  0.99983693    -0.19300
C307        C  0.12868127  0.80749239  0.97011591     0.19900
C308        C  0.16580119  0.82266878  0.93449314     0.02000
C309        C  0.17867620  0.86482665  0.90679038    -0.14000
C310        C  0.15639765  0.89118571  0.91514261    -0.11700
C311        C  0.11986984  0.87603602  0.95041135     0.01600
C312        C  0.10576435  0.83360797  0.97699205    -0.23900
H313        H  0.27693988  0.79106481  0.86567109     0.09600
H314        H  0.23697386  0.83610695  0.86740804     0.13100
H315        H  0.18995676  0.70040495  0.98586425     0.11900
H316        H  0.12825726  0.71097779  0.02051171     0.13000
H317        H  0.08710631  0.75516220  0.02704953     0.12100
H318        H  0.20665054  0.87894697  0.87939275     0.09200
H319        H  0.16802522  0.92377999  0.89403794     0.12400
H320        H  0.07795598  0.82170143  0.00482066     0.14300
C321        C  0.33261927  0.66594969  0.82136923    -0.01200
C322        C  0.36523885  0.70677097  0.79554387    -0.09200
C323        C  0.36671716  0.70882261  0.74167138    -0.18100
C324        C  0.33353839  0.67083488  0.71110786     0.04300
C325        C  0.29689188  0.63180108  0.73697511     0.18500
C326        C  0.29645942  0.62997209  0.79145149    -0.19500
C327        C  0.26063290  0.59516195  0.70827004    -0.20800
C328        C  0.26037080  0.59628683  0.65437275    -0.19300
C329        C  0.29711730  0.63335087  0.62787815     0.19900
C330        C  0.33447624  0.67091082  0.65585129     0.02000
C331        C  0.37096965  0.70706178  0.62722302    -0.14000
C332        C  0.37075894  0.70540682  0.57325801    -0.11700
C333        C  0.33523160  0.66706850  0.54564634     0.01600
C334        C  0.29682602  0.63295720  0.57347752    -0.23900
H335        H  0.38961987  0.73793163  0.81692930     0.09600
H336        H  0.39346182  0.74120591  0.72513531     0.13100
H337        H  0.26722386  0.60092035  0.81033267     0.11900
H338        H  0.23219817  0.56551070  0.72762406     0.13000
H339        H  0.23171130  0.56747688  0.63326872     0.12100
H340        H  0.40041135  0.73702689  0.64535420     0.09200
H341        H  0.39824562  0.73509745  0.55323969     0.12400
H342        H  0.26627046  0.60595836  0.55293108     0.14300
C343        C  0.32816288  0.66580292  0.04559734    -0.01200
C344        C  0.28859061  0.63062935  0.07076563    -0.12800
C345        C  0.28555710  0.62999443  0.12464034    -0.18100
C346        C  0.32143459  0.66587516  0.15542401     0.04300
C347        C  0.35917311  0.70380430  0.12948946     0.18500
C348        C  0.36121991  0.70414217  0.07529313    -0.19500
C349        C  0.39484651  0.74125983  0.15774002    -0.20800
C350        C  0.39456812  0.74130708  0.21147527    -0.19300
C351        C  0.35857014  0.70392868  0.23827796     0.19900
C352        C  0.32111521  0.66594555  0.21077449     0.02000
C353        C  0.28489538  0.63012003  0.24002511    -0.14000
C354        C  0.28735178  0.63083959  0.29414097    -0.11700
C355        C  0.32669708  0.66601269  0.32112754     0.01600
C356        C  0.36011162  0.70430027  0.29260926    -0.23900
H357        H  0.25949098  0.60332550  0.04873568     0.09600
H358        H  0.25467033  0.60102346  0.14095597     0.13100
H359        H  0.38825076  0.73504738  0.05647035     0.11900
H360        H  0.42358485  0.77043760  0.13815256     0.13000
H361        H  0.42309370  0.77050571  0.23225212     0.12100
H362        H  0.25418179  0.60113932  0.22229669     0.09200
H363        H  0.25794861  0.60370224  0.31479549     0.12400
H364        H  0.38751075  0.73483522  0.31255700     0.14300
C365        C  0.87841157  0.12226432  0.54317172    -0.01200
C366        C  0.83208689  0.10130960  0.52322788    -0.09200
C367        C  0.80393358  0.12148906  0.53084157    -0.18100
C368        C  0.82098838  0.16361837  0.55920478     0.04300
C369        C  0.86717395  0.18375741  0.58152442     0.18500
C370        C  0.89554932  0.16339355  0.57285630    -0.19500
C371        C  0.88484113  0.22432381  0.61195854    -0.20800
C372        C  0.85799120  0.24579329  0.61995036    -0.19300
C373        C  0.81319380  0.22799317  0.59666429     0.19900
C374        C  0.79409524  0.18669758  0.56573740     0.02000
C375        C  0.74961833  0.17129247  0.54117264    -0.14000
C376        C  0.72591739  0.19652159  0.54592468    -0.11700
C377        C  0.74488824  0.23720738  0.57616540     0.01600
C378        C  0.78806462  0.25220355  0.60248698    -0.23900
H379        H  0.81757554  0.06938938  0.50053722     0.09600
H380        H  0.76887902  0.10310703  0.51405716     0.13100
H381        H  0.93104671  0.17967600  0.58917285     0.11900
H382        H  0.91979648  0.23969681  0.62957738     0.13000
H383        H  0.87287857  0.27726289  0.64349743     0.12100
H384        H  0.73290148  0.14082327  0.51649602     0.09200
H385        H  0.69271471  0.18462251  0.52513838     0.12400
H386        H  0.80322337  0.28421411  0.62514899     0.14300
C387        C  0.75793311  0.50857677  0.55925030    -0.01200
C388        C  0.79664824  0.53012059  0.52702687    -0.09200
C389        C  0.82201493  0.57889160  0.52171762    -0.18100
C390        C  0.80880553  0.60791073  0.54800456     0.04300
C391        C  0.76921957  0.58576900  0.58054506     0.18500
C392        C  0.74473438  0.53657731  0.58653952    -0.19500
C393        C  0.75382724  0.61278429  0.60614245    -0.20800
C394        C  0.77648178  0.66132564  0.59960141    -0.19300
C395        C  0.81565663  0.68421838  0.56805266     0.19900
C396        C  0.83288188  0.65792972  0.54245903     0.02000
C397        C  0.87339070  0.68288760  0.51230924    -0.14000
C398        C  0.89527113  0.73162304  0.50709984    -0.11700
C399        C  0.87751864  0.75732201  0.53122276     0.01600
C400        C  0.83765554  0.73331406  0.56178740    -0.23900
H401        H  0.80744749  0.50891825  0.50596137     0.09600
H402        H  0.85121966  0.59261930  0.49602997     0.13100
H403        H  0.71444198  0.51983730  0.61112334     0.11900
H404        H  0.72363156  0.59617708  0.63086996     0.13000
H405        H  0.76327873  0.68112433  0.61944043     0.12100
H406        H  0.88922231  0.66588846  0.49233000     0.09200
H407        H  0.92589677  0.74918236  0.48311217     0.12400
H408        H  0.82378557  0.75287702  0.58090699     0.14300
C409        C  0.49584466  0.24996598  0.56542451    -0.01200
C410        C  0.47342943  0.20141953  0.57312874    -0.09200
C411        C  0.42432524  0.17418216  0.57055009    -0.18100
C412        C  0.39597508  0.19499794  0.56024635     0.04300
C413        C  0.41922584  0.24456328  0.55260776     0.18500
C414        C  0.46873463  0.27144747  0.55515728    -0.19500
C415        C  0.39294279  0.26692619  0.54208391    -0.20800
C416        C  0.34403896  0.24114378  0.53826253    -0.19300
C417        C  0.32002894  0.19228828  0.54503536     0.19900
C418        C  0.34557164  0.16850891  0.55665644     0.02000
C419        C  0.31948139  0.11922251  0.56372662    -0.14000
C420        C  0.27042111  0.09455990  0.55802389    -0.11700
C421        C  0.24534308  0.11786333  0.54513740     0.01600
C422        C  0.27057500  0.16699683  0.53944994    -0.23900
H423        H  0.49423470  0.18453243  0.58072312     0.09600
H424        H  0.40969461  0.13695473  0.57648321     0.13100
H425        H  0.48639602  0.30913221  0.54897857     0.11900
H426        H  0.41037092  0.30465055  0.53635759     0.13000
H427        H  0.32484769  0.25956498  0.52958577     0.12100
H428        H  0.33594695  0.09855751  0.57320641     0.09200
H429        H  0.25213668  0.05672732  0.56277137     0.12400
H430        H  0.25181237  0.18565084  0.52962580     0.14300
C431        C  0.87662552  0.12323884  0.03458814    -0.01200
C432        C  0.89781496  0.17028401  0.01821976    -0.09200
C433        C  0.87481825  0.19640405  0.02238928    -0.18100
C434        C  0.82953210  0.17649798  0.04359780     0.04300
C435        C  0.80900781  0.12960692  0.06251307     0.18500
C436        C  0.83222734  0.10338963  0.05729208    -0.19500
C437        C  0.76531993  0.10911299  0.08639410    -0.20800
C438        C  0.74176468  0.13427366  0.09232834    -0.19300
C439        C  0.76042297  0.18010010  0.07297793     0.19900
C440        C  0.80405762  0.20147058  0.04713153     0.02000
C441        C  0.81972523  0.24648280  0.02503616    -0.14000
C442        C  0.79371104  0.26952978  0.02941596    -0.11700
C443        C  0.75190896  0.24926874  0.05687802     0.01600
C444        C  0.73543360  0.20451339  0.07869263    -0.23900
H445        H  0.93213763  0.18692141  0.00096935     0.09600
H446        H  0.89356007  0.23227324  0.00898362     0.13100
H447        H  0.81545074  0.06727764  0.07070790     0.11900
H448        H  0.74943347  0.07345828  0.10111086     0.13000
H449        H  0.70833022  0.11748125  0.11157570     0.12100
H450        H  0.85147989  0.26437325  0.00323836     0.09200
H451        H  0.80661502  0.30383985  0.01181126     0.12400
H452        H  0.70251879  0.18831198  0.09897018     0.14300
C453        C  0.74294427  0.51058845  0.07807451    -0.01200
C454        C  0.78207551  0.53627099  0.11110920    -0.09200
C455        C  0.80865553  0.58540500  0.10755128    -0.18100
C456        C  0.79653013  0.61046348  0.07085474     0.04300
C457        C  0.75474737  0.58432219  0.04023460     0.18500
C458        C  0.72882618  0.53505565  0.04379105    -0.19500
C459        C  0.73961003  0.60734036  0.00520679    -0.20800
C460        C  0.76563832  0.65577881  0.99888375    -0.19300
C461        C  0.80811798  0.68235926  0.02645279     0.19900
C462        C  0.82446622  0.66020837  0.06269139     0.02000
C463        C  0.86879996  0.68861117  0.08752276    -0.14000
C464        C  0.89580954  0.73669217  0.07623168    -0.11700
C465        C  0.87915389  0.75833012  0.04089148     0.01600
C466        C  0.83491014  0.73088694  0.01678286    -0.23900
H467        H  0.79335515  0.51809243  0.13823660     0.09600
H468        H  0.83875311  0.60279175  0.13356794     0.13100
H469        H  0.69788828  0.51543803  0.01906215     0.11900
H470        H  0.70754766  0.58766199  0.98215743     0.13000
H471        H  0.75302091  0.67243379  0.97117608     0.12100
H472        H  0.88406533  0.67439260  0.11476144     0.09200
H473        H  0.92993224  0.75706213  0.09530370     0.12400
H474        H  0.82195384  0.74705131  0.98879072     0.14300
C475        C  0.49246919  0.24560280  0.06702502    -0.01200
C476        C  0.46582678  0.25844777  0.09697286    -0.09200
C477        C  0.41664467  0.23413120  0.09245559    -0.18100
C478        C  0.39261435  0.19549759  0.05822786     0.04300
C479        C  0.41997630  0.18085549  0.03059510     0.18500
C480        C  0.46936418  0.20648609  0.03440459    -0.19500
C481        C  0.39791673  0.14096632  0.99898081    -0.20800
C482        C  0.34914054  0.11570704  0.99329744    -0.19300
C483        C  0.32125228  0.13063336  0.01764087     0.19900
C484        C  0.34260522  0.17101620  0.05012200     0.02000
C485        C  0.31312457  0.18604721  0.07155767    -0.14000
C486        C  0.26469443  0.16220127  0.06094741    -0.11700
C487        C  0.24363579  0.12208564  0.02940716     0.01600
C488        C  0.27220145  0.10614376  0.00847032    -0.23900
H489        H  0.48329047  0.28831772  0.12280438     0.09600
H490        H  0.39840608  0.24621002  0.11638845     0.13100
H491        H  0.49012897  0.19603223  0.01205765     0.11900
H492        H  0.41856336  0.12923208  0.97842494     0.13000
H493        H  0.33319393  0.08499247  0.96850880     0.12100
H494        H  0.32662038  0.21694189  0.09546701     0.09200
H495        H  0.24360479  0.17548650  0.07750605     0.12400
H496        H  0.25648066  0.07555251  0.98346235     0.14300
C497        C  0.66466194  0.33901586  0.95717063    -0.01200
C498        C  0.63287343  0.29796209  0.93024763    -0.09200
C499        C  0.63296180  0.29547870  0.87644205    -0.18100
C500        C  0.66672968  0.33338959  0.84721044     0.04300
C501        C  0.70128306  0.37360723  0.87461826     0.18500
C502        C  0.70050077  0.37559389  0.92887669    -0.19500
C503        C  0.73691197  0.41134688  0.84777561    -0.20800
C504        C  0.73844304  0.41037795  0.79410779    -0.19300
C505        C  0.70424582  0.37175251  0.76589346     0.19900
C506        C  0.66818234  0.33246865  0.79201299     0.02000
C507        C  0.63576790  0.29372642  0.76166411    -0.14000
C508        C  0.63770171  0.29510218  0.70773643    -0.11700
C509        C  0.67060928  0.33561137  0.68168652     0.01600
C510        C  0.70592476  0.37226397  0.71158883    -0.23900
H511        H  0.60823697  0.26681240  0.95089371     0.09600
H512        H  0.60661015  0.26292509  0.85903814     0.13100
H513        H  0.72915892  0.40503535  0.94890343     0.11900
H514        H  0.76365568  0.44198433  0.86842382     0.13000
H515        H  0.76627711  0.44034478  0.77445809     0.12100
H516        H  0.60842578  0.26172793  0.77833699     0.09200
H517        H  0.61299533  0.26408222  0.68627992     0.12400
H518        H  0.73569682  0.40089039  0.69309917     0.14300
C519        C  0.66818444  0.33640503  0.18157854    -0.01200
C520        C  0.63658733  0.34603812  0.20692949    -0.09200
C521        C  0.63668138  0.34827189  0.26076500    -0.18100
C522        C  0.66997731  0.34288786  0.29167347     0.04300
C523        C  0.70452587  0.33712593  0.26598672     0.18500
C524        C  0.70386399  0.33489951  0.21162126    -0.19500
C525        C  0.73961826  0.33368655  0.29472764    -0.20800
C526        C  0.74007106  0.33404691  0.34856865    -0.19300
C527        C  0.70539374  0.33777769  0.37500154     0.19900
C528        C  0.67043171  0.34324007  0.34699424     0.02000
C529        C  0.63774260  0.34917128  0.37571485    -0.14000
C530        C  0.63796097  0.34664202  0.42965250    -0.11700
C531        C  0.66944144  0.33643204  0.45714206     0.01600
C532        C  0.70540086  0.33589107  0.42938251    -0.23900
H533        H  0.61158140  0.35228426  0.18494867     0.09600
H534        H  0.61033059  0.35451804  0.27688963     0.13100
H535        H  0.73221836  0.33353150  0.19306519     0.11900
H536        H  0.76648391  0.32991867  0.27543503     0.13000
H537        H  0.76724166  0.33049436  0.36968782     0.12100
H538        H  0.61158492  0.35595815  0.35776199     0.09200
H539        H  0.61339278  0.35319646  0.44990899     0.12400
H540        H  0.73418346  0.33495970  0.44981245     0.14300
loop_ 
_geom_bond_atom_site_label_1 
_geom_bond_atom_site_label_2 
_geom_bond_distance 
_geom_bond_site_symmetry_2 
_ccdc_geom_bond_type 
C1            C3   1.553       .  S
C1            C5   1.540       .  S
C1            C4   1.547       .  S
C1          C519   1.527       .  S
C2            C6   1.535       .  S
C2            C8   1.543       .  S
C2            C7   1.543       .  S
C2          C497   1.528   1_554  S
C3           C11   1.391       .  A
C3            C6   1.394       .  A
C4           C15   1.385       .  A
C4            C7   1.394       .  A
C5           C19   1.383       .  A
C5            C8   1.392       .  A
C6            C9   1.377       .  A
C7           C13   1.380       .  A
C8           C16   1.382       .  A
C9           N10   1.356       .  A
C9           H22   1.083   1_554  S
N10          C11   1.362       .  A
N10         C443   1.443       .  S
C11          H12   1.081       .  S
C13          N14   1.356       .  A
C13          H23   1.082   1_554  S
N14          C15   1.358       .  A
N14         C475   1.437       .  S
C15          H21   1.082       .  S
C16          N17   1.359       .  A
C16          H18   1.081   1_554  S
N17          C19   1.359       .  A
N17         C453   1.443       .  S
C19          H20   1.082       .  S
C24          C26   1.541       .  S
C24          C28   1.542       .  S
C24          C27   1.530       .  S
C24         C531   1.527       .  S
C25          C29   1.542       .  S
C25          C31   1.549       .  S
C25          C30   1.549       .  S
C25         C509   1.529       .  S
C26          C34   1.379       .  A
C26          C29   1.394       .  A
C27          C38   1.373       .  A
C27          C30   1.393       .  A
C28          C42   1.382       .  A
C28          C31   1.396       .  A
C29          C32   1.384       .  A
C30          C36   1.388       .  A
C31          C39   1.385       .  A
C32          N33   1.360       .  A
C32          H45   1.082       .  S
N33          C34   1.357       .  A
N33         C377   1.440       .  S
C34          H35   1.081       .  S
C36          N37   1.359       .  A
C36          H46   1.081       .  S
N37          C38   1.355       .  A
N37         C387   1.437       .  S
C38          H44   1.083       .  S
C39          N40   1.357       .  A
C39          H41   1.082       .  S
N40          C42   1.355       .  A
N40         C409   1.435       .  S
C42          H43   1.082       .  S
C47          C49   1.532       .  S
C47          C51   1.543       .  S
C47          C50   1.548       .  S
C47         C343   1.529   1_556  S
C48          C52   1.536       .  S
C48          C54   1.548       .  S
C48          C53   1.547       .  S
C48         C321   1.528       .  S
C49          C57   1.377       .  A
C49          C52   1.388       .  A
C50          C61   1.384       .  A
C50          C53   1.397       .  A
C51          C65   1.380       .  A
C51          C54   1.398       .  A
C52          C55   1.382       .  A
C53          C59   1.383       .  A
C54          C62   1.384       .  A
C55          N56   1.362       .  A
C55          H68   1.082       .  S
N56          C57   1.360       .  A
N56         C299   1.443       .  S
C57          H58   1.082   1_556  S
C59          N60   1.355       .  A
C59          H69   1.082       .  S
N60          C61   1.357       .  A
N60         C289   1.439       .  S
C61          H67   1.080   1_556  S
C62          N63   1.357       .  A
C62          H64   1.081       .  S
N63          C65   1.353       .  A
N63         C267   1.432       .  S
C65          H66   1.082   1_556  S
C70          C72   1.538       .  S
C70          C74   1.550       .  S
C70          C73   1.547       .  S
C70         C355   1.527       .  S
C71          C75   1.533       .  S
C71          C77   1.547       .  S
C71          C76   1.541       .  S
C71         C333   1.529       .  S
C72          C80   1.385       .  A
C72          C75   1.388       .  A
C73          C84   1.385       .  A
C73          C76   1.397       .  A
C74          C88   1.385       .  A
C74          C77   1.398       .  A
C75          C78   1.376       .  A
C76          C82   1.377       .  A
C77          C85   1.385       .  A
C78          N79   1.360       .  A
C78          H91   1.083       .  S
N79          C80   1.362       .  A
N79         C233   1.444       .  S
C80          H81   1.082       .  S
C82          N83   1.354       .  A
C82          H92   1.081       .  S
N83          C84   1.356       .  A
N83         C201   1.433       .  S
C84          H90   1.081       .  S
C85          N86   1.358       .  A
C85          H87   1.081       .  S
N86          C88   1.357       .  A
N86         C211   1.443       .  S
C88          H89   1.081       .  S
O93         Mg95   2.136       .  S
O93        Mg101   2.160   1_564  S
O93         C128   1.236       .  S
C94         H133   1.081       .  S
C94         O107   1.237       .  S
C94         O131   1.272       .  A
Mg95        O124   2.160   1_454  S
Mg95        O139   2.328   1_554  S
Mg95        O135   2.282   1_455  S
Mg95        O106   2.302   1_455  S
O96        Mg138   2.155   1_454  S
O96        Mg121   2.147       .  S
O96         C117   1.235       .  S
O97         C128   1.269   1_545  A
O97        Mg121   2.288       .  S
C98         O100   1.275       .  A
C98         O112   1.275       .  A
C98         C277   1.484       .  S
O99         C127   1.270   1_455  A
O99        Mg101   2.297   1_565  S
O100       Mg132   2.283       .  S
Mg101       O107   2.161       .  S
Mg101       O115   2.292   1_545  S
Mg101       O103   2.327       .  S
C102        O140   1.276       .  A
C102        O108   1.280       .  A
C102        C431   1.497       .  S
O103        C110   1.278   1_556  A
H104        C117   1.081       .  S
C105        H130   1.081       .  S
C105        O119   1.237       .  S
C105        O120   1.271   1_545  A
O106        C129   1.272       .  A
O107       Mg121   2.161   1_556  S
O108       Mg138   2.334   1_554  S
C109        O122   1.275       .  A
C109        O114   1.275       .  A
C109        C255   1.487       .  S
C110        O137   1.273       .  A
C110        C487   1.486       .  S
Mg111       O118   2.163       .  S
Mg111       O119   2.163   1_564  S
Mg111       O112   2.294   1_554  S
Mg111       O113   2.295   1_565  S
Mg111       O140   2.293   1_565  S
O113        C117   1.269   1_655  A
O114       Mg121   2.297   1_556  S
O115        C134   1.277       .  A
O116        C136   1.278       .  A
O116       Mg132   2.320   1_554  S
O118       Mg132   2.167   1_554  S
O118        C129   1.237       .  S
O119       Mg138   2.146       .  S
O120       Mg132   2.300       .  S
Mg121       O137   2.258       .  S
O122       Mg138   2.282   1_455  S
H123        C128   1.081       .  S
O124       Mg132   2.150       .  S
O124        C127   1.236       .  S
H125        C127   1.081       .  S
H126        C129   1.081       .  S
O131       Mg138   2.305   1_455  S
C134        O139   1.280       .  A
C134        C311   1.491       .  S
O135        C136   1.275       .  A
C136        C465   1.487       .  S
O141       Mg143   2.153       .  S
O141       Mg149   2.162   1_655  S
O141        C176   1.237       .  S
C142        H181   1.081       .  S
C142        O155   1.236       .  S
C142        O179   1.271       .  A
Mg143       O172   2.161   1_545  S
Mg143       O187   2.311       .  S
Mg143       O183   2.297   1_545  S
Mg143       O154   2.296   1_545  S
O144       Mg186   2.154   1_545  S
O144       Mg169   2.143       .  S
O144        C165   1.235       .  S
O145        C176   1.271   1_455  A
O145       Mg169   2.300       .  S
C146        O148   1.274       .  A
C146        O160   1.276       .  A
C146        C399   1.483       .  S
O147        C175   1.271   1_545  A
O147       Mg149   2.299   1_655  S
O148       Mg180   2.274       .  S
Mg149       O155   2.157       .  S
Mg149       O163   2.298   1_455  S
Mg149       O151   2.323       .  S
C150        O188   1.275       .  A
C150        O156   1.278       .  A
C150        C245   1.488       .  S
O151        C158   1.279       .  A
H152        C165   1.081       .  S
C153        H178   1.081       .  S
C153        O167   1.236       .  S
C153        O168   1.270   1_455  A
O154        C177   1.270       .  A
O155       Mg169   2.160       .  S
O156       Mg186   2.311       .  S
C157        O170   1.275       .  A
C157        O162   1.278       .  A
C157        C421   1.492       .  S
C158        O185   1.273       .  A
C158        C189   1.486       .  S
Mg159       O166   2.151       .  S
Mg159       O167   2.167   1_655  S
Mg159       O160   2.299       .  S
Mg159       O161   2.293   1_655  S
Mg159       O188   2.288   1_655  S
O161        C165   1.269   1_565  A
O162       Mg169   2.324       .  S
O163        C182   1.277       .  A
O164        C184   1.276       .  A
O164       Mg180   2.307       .  S
O166       Mg180   2.166       .  S
O166        C177   1.236       .  S
O167       Mg186   2.144       .  S
O168       Mg180   2.294       .  S
Mg169       O185   2.261       .  S
O170       Mg186   2.277   1_545  S
H171        C176   1.081       .  S
O172       Mg180   2.148       .  S
O172        C175   1.237       .  S
H173        C175   1.081       .  S
H174        C177   1.081       .  S
O179       Mg186   2.301   1_545  S
C182        O187   1.278       .  A
C182        C365   1.491       .  S
O183        C184   1.276       .  A
C184        C223   1.490       .  S
C189        C190   1.400       .  A
C189        C194   1.406       .  A
C190        C191   1.395       .  A
C190        H203   1.083       .  S
C191        C192   1.415       .  A
C191        H204   1.077       .  S
C192        C198   1.430       .  A
C192        C193   1.421       .  A
C193        C195   1.401       .  A
C193        C194   1.408       .  A
C194        H205   1.084       .  S
C195        C196   1.392       .  A
C195        H206   1.084       .  S
C196        C197   1.400       .  A
C196        H207   1.084       .  S
C197        C198   1.424       .  A
C197        C202   1.409       .  A
C198        C199   1.414       .  A
C199        C200   1.393       .  A
C199        H208   1.077       .  S
C200        C201   1.396       .  A
C200        H209   1.083       .  S
C201        C202   1.399       .  A
C202        H210   1.084       .  S
C211        C212   1.401       .  A
C211        C216   1.401       .  A
C212        C213   1.400       .  A
C212        H225   1.083       .  S
C213        C214   1.415       .  A
C213        H226   1.078       .  S
C214        C220   1.435       .  A
C214        C215   1.424       .  A
C215        C217   1.399       .  A
C215        C216   1.409       .  A
C216        H227   1.084       .  S
C217        C218   1.391       .  A
C217        H228   1.084       .  S
C218        C219   1.401       .  A
C218        H229   1.084       .  S
C219        C220   1.422       .  A
C219        C224   1.407       .  A
C220        C221   1.417       .  A
C221        C222   1.402       .  A
C221        H230   1.078       .  S
C222        C223   1.402       .  A
C222        H231   1.083       .  S
C223        C224   1.405       .  A
C224        H232   1.084       .  S
C233        C234   1.400       .  A
C233        C238   1.404       .  A
C234        C235   1.396       .  A
C234        H247   1.083       .  S
C235        C236   1.415       .  A
C235        H248   1.077       .  S
C236        C242   1.433       .  A
C236        C237   1.424       .  A
C237        C239   1.401       .  A
C237        C238   1.413       .  A
C238        H249   1.084       .  S
C239        C240   1.395       .  A
C239        H250   1.084       .  S
C240        C241   1.401       .  A
C240        H251   1.084       .  S
C241        C242   1.423       .  A
C241        C246   1.412       .  A
C242        C243   1.415       .  A
C243        C244   1.396       .  A
C243        H252   1.077       .  S
C244        C245   1.402       .  A
C244        H253   1.083       .  S
C245        C246   1.405       .  A
C246        H254   1.084       .  S
C255        C256   1.404       .  A
C255        C260   1.403       .  A
C256        C257   1.397       .  A
C256        H269   1.083       .  S
C257        C258   1.414       .  A
C257        H270   1.077       .  S
C258        C264   1.432       .  A
C258        C259   1.424       .  A
C259        C261   1.399       .  A
C259        C260   1.407       .  A
C260        H271   1.084       .  S
C261        C262   1.390       .  A
C261        H272   1.084       .  S
C262        C263   1.399       .  A
C262        H273   1.084       .  S
C263        C264   1.423       .  A
C263        C268   1.404       .  A
C264        C265   1.419       .  A
C265        C266   1.400       .  A
C265        H274   1.077       .  S
C266        C267   1.396       .  A
C266        H275   1.083       .  S
C267        C268   1.397       .  A
C268        H276   1.084       .  S
C277        C278   1.402       .  A
C277        C282   1.403       .  A
C278        C279   1.396       .  A
C278        H291   1.083   1_556  S
C279        C280   1.414       .  A
C279        H292   1.077       .  S
C280        C286   1.431       .  A
C280        C281   1.423       .  A
C281        C283   1.400       .  A
C281        C282   1.408       .  A
C282        H293   1.085       .  S
C283        C284   1.391       .  A
C283        H294   1.084       .  S
C284        C285   1.400       .  A
C284        H295   1.083       .  S
C285        C286   1.423       .  A
C285        C290   1.407       .  A
C286        C287   1.416       .  A
C287        C288   1.397       .  A
C287        H296   1.076   1_556  S
C288        C289   1.399       .  A
C288        H297   1.084       .  S
C289        C290   1.400       .  A
C290        H298   1.083       .  S
C299        C300   1.401       .  A
C299        C304   1.401       .  A
C300        C301   1.403       .  A
C300        H313   1.083       .  S
C301        C302   1.417       .  A
C301        H314   1.078       .  S
C302        C308   1.436       .  A
C302        C303   1.423       .  A
C303        C305   1.399       .  A
C303        C304   1.406       .  A
C304        H315   1.084       .  S
C305        C306   1.390       .  A
C305        H316   1.084   1_556  S
C306        C307   1.400       .  A
C306        H317   1.084   1_556  S
C307        C308   1.423       .  A
C307        C312   1.407       .  A
C308        C309   1.417       .  A
C309        C310   1.403       .  A
C309        H318   1.078       .  S
C310        C311   1.403       .  A
C310        H319   1.083       .  S
C311        C312   1.403       .  A
C312        H320   1.084   1_556  S
C321        C322   1.404       .  A
C321        C326   1.406       .  A
C322        C323   1.393       .  A
C322        H335   1.080       .  S
C323        C324   1.411       .  A
C323        H336   1.077       .  S
C324        C330   1.429       .  A
C324        C325   1.421       .  A
C325        C327   1.400       .  A
C325        C326   1.408       .  A
C326        H337   1.081       .  S
C327        C328   1.392       .  A
C327        H338   1.084       .  S
C328        C329   1.401       .  A
C328        H339   1.084       .  S
C329        C330   1.419       .  A
C329        C334   1.405       .  A
C330        C331   1.413       .  A
C331        C332   1.396       .  A
C331        H340   1.077       .  S
C332        C333   1.403       .  A
C332        H341   1.080       .  S
C333        C334   1.407       .  A
C334        H342   1.081       .  S
C343        C344   1.405       .  A
C343        C348   1.403       .  A
C344        C345   1.397       .  A
C344        H357   1.081       .  S
C345        C346   1.413       .  A
C345        H358   1.077       .  S
C346        C352   1.430       .  A
C346        C347   1.421       .  A
C347        C349   1.399       .  A
C347        C348   1.403       .  A
C348        H359   1.079       .  S
C349        C350   1.388       .  A
C349        H360   1.084       .  S
C350        C351   1.399       .  A
C350        H361   1.084       .  S
C351        C352   1.421       .  A
C351        C356   1.403       .  A
C352        C353   1.414       .  A
C353        C354   1.398       .  A
C353        H362   1.077       .  S
C354        C355   1.404       .  A
C354        H363   1.081       .  S
C355        C356   1.403       .  A
C356        H364   1.081       .  S
C365        C366   1.403       .  A
C365        C370   1.406       .  A
C366        C367   1.396       .  A
C366        H379   1.083       .  S
C367        C368   1.413       .  A
C367        H380   1.077       .  S
C368        C374   1.433       .  A
C368        C369   1.423       .  A
C369        C371   1.401       .  A
C369        C370   1.412       .  A
C370        H381   1.084       .  S
C371        C372   1.394       .  A
C371        H382   1.084       .  S
C372        C373   1.401       .  A
C372        H383   1.084       .  S
C373        C374   1.423       .  A
C373        C378   1.411       .  A
C374        C375   1.415       .  A
C375        C376   1.396       .  A
C375        H384   1.077       .  S
C376        C377   1.399       .  A
C376        H385   1.083       .  S
C377        C378   1.402       .  A
C378        H386   1.084       .  S
C387        C388   1.398       .  A
C387        C392   1.400       .  A
C388        C389   1.395       .  A
C388        H401   1.083       .  S
C389        C390   1.415       .  A
C389        H402   1.077       .  S
C390        C396   1.430       .  A
C390        C391   1.423       .  A
C391        C393   1.400       .  A
C391        C392   1.408       .  A
C392        H403   1.084       .  S
C393        C394   1.392       .  A
C393        H404   1.084       .  S
C394        C395   1.400       .  A
C394        H405   1.084       .  S
C395        C396   1.422       .  A
C395        C400   1.408       .  A
C396        C397   1.414       .  A
C397        C398   1.395       .  A
C397        H406   1.077       .  S
C398        C399   1.401       .  A
C398        H407   1.083       .  S
C399        C400   1.403       .  A
C400        H408   1.084       .  S
C409        C410   1.396       .  A
C409        C414   1.399       .  A
C410        C411   1.399       .  A
C410        H423   1.083       .  S
C411        C412   1.417       .  A
C411        H424   1.077       .  S
C412        C418   1.434       .  A
C412        C413   1.424       .  A
C413        C415   1.400       .  A
C413        C414   1.409       .  A
C414        H425   1.084       .  S
C415        C416   1.392       .  A
C415        H426   1.084       .  S
C416        C417   1.401       .  A
C416        H427   1.084       .  S
C417        C418   1.423       .  A
C417        C422   1.410       .  A
C418        C419   1.415       .  A
C419        C420   1.399       .  A
C419        H428   1.077       .  S
C420        C421   1.403       .  A
C420        H429   1.083       .  S
C421        C422   1.406       .  A
C422        H430   1.084       .  S
C431        C432   1.404       .  A
C431        C436   1.408       .  A
C432        C433   1.401       .  A
C432        H445   1.083       .  S
C433        C434   1.415       .  A
C433        H446   1.078       .  S
C434        C440   1.436       .  A
C434        C435   1.422       .  A
C435        C437   1.402       .  A
C435        C436   1.413       .  A
C436        H447   1.084       .  S
C437        C438   1.394       .  A
C437        H448   1.084       .  S
C438        C439   1.401       .  A
C438        H449   1.084       .  S
C439        C440   1.424       .  A
C439        C444   1.413       .  A
C440        C441   1.416       .  A
C441        C442   1.400       .  A
C441        H450   1.078       .  S
C442        C443   1.400       .  A
C442        H451   1.083       .  S
C443        C444   1.402       .  A
C444        H452   1.084       .  S
C453        C454   1.402       .  A
C453        C458   1.401       .  A
C454        C455   1.403       .  A
C454        H467   1.083       .  S
C455        C456   1.417       .  A
C455        H468   1.078       .  S
C456        C462   1.435       .  A
C456        C457   1.423       .  A
C457        C459   1.399       .  A
C457        C458   1.405       .  A
C458        H469   1.084       .  S
C459        C460   1.389   1_554  A
C459        H470   1.084   1_554  S
C460        C461   1.399   1_556  A
C460        H471   1.084       .  S
C461        C462   1.423       .  A
C461        C466   1.406       .  A
C462        C463   1.416       .  A
C463        C464   1.402       .  A
C463        H472   1.078       .  S
C464        C465   1.403       .  A
C464        H473   1.083       .  S
C465        C466   1.402       .  A
C466        H474   1.085   1_554  S
C475        C476   1.398       .  A
C475        C480   1.400       .  A
C476        C477   1.400       .  A
C476        H489   1.083       .  S
C477        C478   1.417       .  A
C477        H490   1.078       .  S
C478        C484   1.432       .  A
C478        C479   1.422       .  A
C479        C481   1.400   1_554  A
C479        C480   1.405       .  A
C480        H491   1.084       .  S
C481        C482   1.391       .  A
C481        H492   1.084       .  S
C482        C483   1.400   1_556  A
C482        H493   1.084       .  S
C483        C484   1.423       .  A
C483        C488   1.408       .  A
C484        C485   1.413       .  A
C485        C486   1.397       .  A
C485        H494   1.078       .  S
C486        C487   1.403       .  A
C486        H495   1.083       .  S
C487        C488   1.403       .  A
C488        H496   1.084   1_554  S
C497        C498   1.405       .  A
C497        C502   1.405       .  A
C498        C499   1.394       .  A
C498        H511   1.081       .  S
C499        C500   1.411       .  A
C499        H512   1.078       .  S
C500        C506   1.429       .  A
C500        C501   1.421       .  A
C501        C503   1.400       .  A
C501        C502   1.406       .  A
C502        H513   1.080       .  S
C503        C504   1.390       .  A
C503        H514   1.084       .  S
C504        C505   1.400       .  A
C504        H515   1.084       .  S
C505        C506   1.420       .  A
C505        C510   1.405       .  A
C506        C507   1.413       .  A
C507        C508   1.395       .  A
C507        H516   1.078       .  S
C508        C509   1.404       .  A
C508        H517   1.081       .  S
C509        C510   1.405       .  A
C510        H518   1.079       .  S
C519        C520   1.405       .  A
C519        C524   1.404       .  A
C520        C521   1.394       .  A
C520        H533   1.082       .  S
C521        C522   1.411       .  A
C521        H534   1.078       .  S
C522        C528   1.429       .  A
C522        C523   1.421       .  A
C523        C525   1.400       .  A
C523        C524   1.406       .  A
C524        H535   1.079       .  S
C525        C526   1.391       .  A
C525        H536   1.084       .  S
C526        C527   1.400       .  A
C526        H537   1.084       .  S
C527        C528   1.420       .  A
C527        C532   1.405       .  A
C528        C529   1.413       .  A
C529        C530   1.394       .  A
C529        H538   1.077       .  S
C530        C531   1.404       .  A
C530        H539   1.081       .  S
C531        C532   1.405       .  A
C532        H540   1.080       .  S
