geometry optimzed in LAMMPS
_audit_creation_date              2020-12-01 
_audit_creation_method            'lammps2cif' 
_symmetry_space_group_name_H-M    'P1' 
_symmetry_Int_Tables_number       1 
_symmetry_cell_setting            triclinic 
loop_ 
_symmetry_equiv_pos_as_xyz 
  x,y,z 
_cell_length_a                    27.42456184 
_cell_length_b                    27.42052849561301 
_cell_length_c                    29.67073348507459 
_cell_angle_alpha                 89.72040963012803 
_cell_angle_beta                  90.13581229214267 
_cell_angle_gamma                 120.0372970020547 
loop_ 
_atom_site_label 
_atom_site_type_symbol 
_atom_site_fract_x 
_atom_site_fract_y 
_atom_site_fract_z 
_atom_site_charge 
O1          O  0.93016339  0.46325132  0.06259600    -0.73800
O2          O  0.93090996  0.45575350  0.93390267    -0.73800
O3          O  0.93048832  0.38965959  0.00262638    -0.73800
O4          O  0.93101434  0.52974454  0.99400779    -0.73900
O5          O  0.02490660  0.57635160  0.99778498    -0.73800
O6          O  0.02442930  0.43654469  0.99943508    -0.73800
O7          O  0.02481227  0.50545563  0.93385907    -0.73800
O8          O  0.02405899  0.50726038  0.06320872    -0.73800
Ni9        Ni  0.92727597  0.45793310  0.99823947     1.25400
Ni10       Ni  0.02792528  0.50807790  0.99855900     1.25400
C11         C  0.97688287  0.48600088  0.08412875     0.88400
C12         C  0.97783926  0.47970825  0.91264317     0.88400
C13         C  0.97747878  0.39024030  0.00196505     0.88400
C14         C  0.97815101  0.57605724  0.99533470     0.88600
O15         O  0.04826255  0.44751020  0.49851254    -0.73800
O16         O  0.05328239  0.58967335  0.49749340    -0.73800
O17         O  0.05117527  0.51851299  0.56257356    -0.73800
O18         O  0.05059048  0.51911608  0.43360661    -0.73900
O19         O  0.95681774  0.47743327  0.43378173    -0.73800
O20         O  0.95722054  0.47096621  0.56299082    -0.73800
O21         O  0.95940129  0.54514291  0.50128173    -0.73800
O22         O  0.95435741  0.40312936  0.49530616    -0.73800
Ni23       Ni  0.05417517  0.52025103  0.49806954     1.25400
Ni24       Ni  0.95354857  0.47254154  0.49838257     1.25400
C25         C  0.00046460  0.40205214  0.49650862     0.88400
C26         C  0.00716271  0.59065824  0.49938080     0.88400
C27         C  0.00438916  0.49415185  0.58403118     0.88400
C28         C  0.00375085  0.49931941  0.41247083     0.88600
C29         C  0.96100197  0.94833791  0.00596767     0.03000
C30         C  0.01320561  0.94899840  0.00590196     0.03000
C31         C  0.06446798  0.00128791  0.00596728     0.03000
C32         C  0.06359849  0.05256640  0.00419939     0.03000
C33         C  0.01155800  0.05193456  0.00382253     0.03000
C34         C  0.96012400  0.99970199  0.00508589     0.03000
C35         C  0.95075868  0.94487436  0.51332082     0.03000
C36         C  0.00183124  0.94357225  0.51462238     0.03000
C37         C  0.05453390  0.99458041  0.51430818     0.03000
C38         C  0.05609806  0.04709562  0.51317693     0.03000
C39         C  0.00489602  0.04840064  0.51338638     0.03000
C40         C  0.95227954  0.99741974  0.51287659     0.03000
O41         O  0.49525639  0.97169966  0.04847797    -0.73800
O42         O  0.50083930  0.97217185  0.91951883    -0.73800
O43         O  0.56833682  0.97276764  0.98696735    -0.73800
O44         O  0.42801758  0.97113641  0.98103928    -0.73900
O45         O  0.47367555  0.06502035  0.98480060    -0.73800
O46         O  0.61456566  0.06666945  0.98280888    -0.73800
O47         O  0.54336322  0.06598396  0.91903342    -0.73800
O48         O  0.54483128  0.06560677  0.04855610    -0.73800
Ni49       Ni  0.49650805  0.96863536  0.98401317     1.25400
Ni50       Ni  0.54582312  0.06925887  0.98380648     1.25400
C51         C  0.51949189  0.01850522  0.06979792     0.88400
C52         C  0.52222967  0.01900792  0.89797716     0.88400
C53         C  0.61447803  0.01995999  0.98515475     0.88400
C54         C  0.42773556  0.01763240  0.98254659     0.88600
O55         O  0.58881040  0.02486266  0.48595158    -0.73800
O56         O  0.45093003  0.02858913  0.48212098    -0.73800
O57         O  0.51873670  0.02674420  0.54841601    -0.73800
O58         O  0.52135464  0.02695530  0.41943245    -0.73900
O59         O  0.46907860  0.93321188  0.41940276    -0.73800
O60         O  0.47337112  0.93281101  0.54891186    -0.73800
O61         O  0.40192238  0.93472750  0.48628334    -0.73800
O62         O  0.54009661  0.93099916  0.48221150    -0.73800
Ni63       Ni  0.52165115  0.03009679  0.48393635     1.25400
Ni64       Ni  0.46929849  0.92950812  0.48417301     1.25400
C65         C  0.58707325  0.97734203  0.48458743     0.86600
C66         C  0.40383073  0.98234881  0.48420430     0.88400
C67         C  0.49678071  0.97988947  0.56994473     0.88400
C68         C  0.49505995  0.98025692  0.39812152     0.88600
O69         O  0.52900887  0.49035440  0.06874822    -0.73800
O70         O  0.52166031  0.48430457  0.93976447    -0.73800
O71         O  0.59508742  0.55722267  0.00134625    -0.73800
O72         O  0.45586567  0.41750838  0.00720122    -0.73900
O73         O  0.40890539  0.46442710  0.01067844    -0.73800
O74         O  0.54796486  0.60403678  0.99837817    -0.73800
O75         O  0.47217188  0.52868109  0.94012055    -0.73800
O76         O  0.48454529  0.53975970  0.06889964    -0.73800
Ni77       Ni  0.52711639  0.48571189  0.00424522     1.25400
Ni78       Ni  0.47670431  0.53592603  0.00452330     1.25400
C79         C  0.50796491  0.51602152  0.09005956     0.88400
C80         C  0.49546467  0.50521777  0.91872128     0.88400
C81         C  0.59435343  0.60343888  0.99841187     0.88400
C82         C  0.40964356  0.41810367  0.01047920     0.88600
O83         O  0.50560060  0.49516419  0.44010194    -0.73800
O84         O  0.50441880  0.49611749  0.56945992    -0.73800
O85         O  0.43590820  0.42496641  0.50531620    -0.73800
O86         O  0.57439396  0.56581972  0.50439795    -0.73900
O87         O  0.52663411  0.61195995  0.50658317    -0.73800
O88         O  0.38745073  0.47029623  0.50088240    -0.73800
O89         O  0.45387255  0.53937678  0.56818798    -0.73800
O90         O  0.46017642  0.54362360  0.43925863    -0.73800
Ni91       Ni  0.50675060  0.49386510  0.50485052     1.25400
Ni92       Ni  0.45524350  0.54291895  0.50365280     1.25400
C93         C  0.48356950  0.51991857  0.41842278     0.88400
C94         C  0.47889974  0.51789166  0.59008226     0.88400
C95         C  0.38901678  0.42434857  0.50269155     0.88400
C96         C  0.57337401  0.61192822  0.50617011     0.88600
C97         C  0.49992100  0.48831928  0.79070293     0.16600
C98         C  0.50842025  0.47521730  0.74690858    -0.32400
C99         C  0.49308485  0.49809117  0.71094831     0.21000
C100        C  0.47014646  0.53242253  0.71815990     0.03200
C101        C  0.46163212  0.54556350  0.76201746    -0.22100
C102        C  0.47701458  0.52266082  0.79802661     0.12400
S103        S  0.51671255  0.46545916  0.83871467    -0.05800
C104        C  0.49274672  0.50262046  0.86914793    -0.09300
C105        C  0.47254955  0.53083479  0.84305345    -0.25900
S106        S  0.45409640  0.55562786  0.66988106    -0.03100
C107        C  0.47857425  0.51863016  0.63970937    -0.16500
C108        C  0.49822015  0.49020970  0.66603964    -0.14500
H109        H  0.52638034  0.44848179  0.74110843     0.20800
H110        H  0.44388470  0.57248465  0.76781626     0.16900
H111        H  0.45628484  0.55662916  0.85629375     0.19400
H112        H  0.51511019  0.46485735  0.65301541     0.12700
C113        C  0.47739714  0.53619192  0.29030250     0.16600
C114        C  0.46800739  0.54879137  0.24643051    -0.32400
C115        C  0.48980311  0.53230470  0.21068102     0.21000
C116        C  0.51974679  0.50460504  0.21823090     0.03200
C117        C  0.52924389  0.49209655  0.26214178    -0.22100
C118        C  0.50728093  0.50843813  0.29791491     0.12400
S119        S  0.45427847  0.55256062  0.33808477    -0.05800
C120        C  0.48516137  0.52170776  0.36880316    -0.09300
C121        C  0.51180710  0.49988967  0.34296180    -0.25900
S122        S  0.54163906  0.48711715  0.17026916    -0.03100
C123        C  0.50985414  0.51717339  0.13967431    -0.16500
C124        C  0.48415439  0.53982837  0.16567079    -0.14500
H125        H  0.44449616  0.57026886  0.24041742     0.20800
H126        H  0.55243756  0.47029334  0.26814191     0.16900
H127        H  0.53354403  0.47916708  0.35639640     0.19400
H128        H  0.46162950  0.55980042  0.15235207     0.12700
C129        C  0.49357628  0.96116508  0.69866791     0.16600
C130        C  0.48564970  0.94100259  0.74311086    -0.32400
C131        C  0.50439415  0.98073978  0.77798654     0.21000
C132        C  0.53015698  0.03803673  0.76912504     0.03200
C133        C  0.53835607  0.05821897  0.72467457    -0.22100
C134        C  0.51934356  0.01846264  0.68980669     0.12400
S135        S  0.47291198  0.91985234  0.65160243    -0.05800
C136        C  0.49901114  0.98044758  0.61961012    -0.09300
C137        C  0.52271223  0.02977163  0.64453099    -0.25900
S138        S  0.54924406  0.07923975  0.81623037    -0.03100
C139        C  0.52217514  0.01858039  0.84825814    -0.16500
C140        C  0.49975050  0.96934452  0.82329232    -0.14500
H141        H  0.46539314  0.89628710  0.75021423     0.20800
H142        H  0.55829232  0.10291454  0.71757391     0.16900
H143        H  0.54121155  0.07174878  0.63027521     0.19400
H144        H  0.48074466  0.92733329  0.83754755     0.12700
C145        C  0.52768986  0.03773037  0.19840243     0.16600
C146        C  0.53896095  0.05805228  0.24268750    -0.32400
C147        C  0.51599183  0.01854743  0.27787585     0.21000
C148        C  0.48299929  0.96135792  0.26944424     0.03200
C149        C  0.47157990  0.94105056  0.22515362    -0.22100
C150        C  0.49483092  0.98052608  0.18996764     0.12400
S151        S  0.55217656  0.07866834  0.15103394    -0.05800
C152        C  0.51801859  0.01803179  0.11947187    -0.09300
C153        C  0.48915525  0.96897343  0.14475303    -0.25900
S154        S  0.45953778  0.92032277  0.31683907    -0.03100
C155        C  0.49475278  0.98085195  0.34841330    -0.16500
C156        C  0.52281631  0.02998413  0.32310109    -0.14500
H157        H  0.56478670  0.10267459  0.24943292     0.20800
H158        H  0.44599971  0.89640258  0.21840876     0.16900
H159        H  0.46531738  0.92701469  0.13078968     0.19400
H160        H  0.54719971  0.07189328  0.33705241     0.12700
C161        C  0.24958220  0.28663401  0.48384599     0.16600
C162        C  0.19853688  0.24241069  0.46744122    -0.32400
C163        C  0.17450342  0.19063748  0.49047841     0.21000
C164        C  0.19958814  0.18342461  0.52858562     0.03200
C165        C  0.25128842  0.22715179  0.54431485    -0.22100
C166        C  0.27576948  0.27863051  0.52089324     0.12400
S167        S  0.28508764  0.35316296  0.46142660    -0.05800
C168        C  0.33646319  0.36967082  0.50155292    -0.09300
C169        C  0.32606050  0.32591589  0.53076777    -0.25900
S170        S  0.16134997  0.11902188  0.55392922    -0.03100
C171        C  0.11125667  0.10098150  0.51225939    -0.16500
C172        C  0.12453741  0.14310941  0.48036336    -0.14500
H173        H  0.17815185  0.24824885  0.43827660     0.20800
H174        H  0.27128160  0.22149932  0.57382706     0.16900
H175        H  0.35384272  0.32871857  0.55789533     0.19400
H176        H  0.09782506  0.13980183  0.45223672     0.12700
C177        C  0.81385412  0.80468876  0.48934236     0.16600
C178        C  0.77129138  0.75389840  0.47131530    -0.32400
C179        C  0.71853204  0.72798489  0.49259868     0.21000
C180        C  0.70814321  0.75212509  0.52962801     0.03200
C181        C  0.75113784  0.80234253  0.54826466    -0.22100
C182        C  0.80429501  0.82762432  0.52752837     0.12400
S183        S  0.87987737  0.84379517  0.46723706    -0.05800
C184        C  0.89562686  0.89108264  0.51063744    -0.09300
C185        C  0.85138781  0.87653441  0.54048773    -0.25900
S186        S  0.64064771  0.71480743  0.54961693    -0.03100
C187        C  0.62702122  0.66537130  0.50859534    -0.16500
C188        C  0.67232743  0.67775240  0.48079202    -0.14500
H189        H  0.77892528  0.73545080  0.44190433     0.20800
H190        H  0.74348841  0.82091890  0.57758162     0.16900
H191        H  0.85317275  0.90144246  0.56930912     0.19400
H192        H  0.67148171  0.65120291  0.45354298     0.12700
C193        C  0.27604268  0.00300890  0.47182489     0.16600
C194        C  0.23665293  0.01876176  0.45865221    -0.32400
C195        C  0.19002065  0.00310860  0.48682355     0.21000
C196        C  0.18319481  0.97358101  0.52658981     0.03200
C197        C  0.22194285  0.95679640  0.53928985    -0.22100
C198        C  0.26824219  0.97187938  0.51086459     0.12400
S199        S  0.33690103  0.02044061  0.44354283    -0.05800
C200        C  0.35128572  0.98435900  0.48416299    -0.09300
C201        C  0.31092304  0.96021176  0.51771931    -0.25900
S202        S  0.12467803  0.95995000  0.55671331    -0.03100
C203        C  0.10793904  0.99259372  0.51445486    -0.16500
C204        C  0.14686073  0.01392274  0.47957141    -0.14500
H205        H  0.24233449  0.04256218  0.42795749     0.20800
H206        H  0.21639771  0.93326106  0.57011384     0.16900
H207        H  0.31369742  0.93706705  0.54635212     0.19400
H208        H  0.14315898  0.03535660  0.45013822     0.12700
C209        C  0.71897072  0.96353357  0.47488410     0.16600
C210        C  0.76144691  0.95243399  0.46154241    -0.32400
C211        C  0.81152763  0.97706843  0.48661251     0.21000
C212        C  0.81838023  0.00965695  0.52423523     0.03200
C213        C  0.77649334  0.02193733  0.53693354    -0.22100
C214        C  0.72708889  0.99876602  0.51099438     0.12400
S215        S  0.65483839  0.93722399  0.44921107    -0.05800
C216        C  0.63995061  0.97613478  0.48622682    -0.09300
C217        C  0.68213617  0.00687253  0.51720055    -0.25900
S218        S  0.88051814  0.03194258  0.55209778    -0.03100
C219        C  0.89863237  0.99897217  0.51145345    -0.16500
C220        C  0.85791329  0.97203396  0.47844925    -0.14500
H221        H  0.75576132  0.92584308  0.43284612     0.20800
H222        H  0.78215399  0.04837658  0.56573041     0.16900
H223        H  0.67970381  0.03325272  0.54311761     0.19400
H224        H  0.86163918  0.94888924  0.45048514     0.12700
C225        C  0.20834018  0.18532085  0.98520508     0.16600
C226        C  0.26207423  0.22554908  0.97016806    -0.32400
C227        C  0.29052455  0.27609200  0.99417516     0.21000
C228        C  0.26620164  0.28668675  0.03102714     0.03200
C229        C  0.21302602  0.24575790  0.04681817    -0.22100
C230        C  0.18500478  0.19472397  0.02327526     0.12400
S231        S  0.16636083  0.12228703  0.95969399    -0.05800
C232        C  0.11767414  0.10707408  0.00199676    -0.09300
C233        C  0.13327171  0.14960693  0.03348342    -0.25900
S234        S  0.30614378  0.35231198  0.05354521    -0.03100
C235        C  0.35656018  0.36463684  0.01367888    -0.16500
C236        C  0.34292796  0.32036995  0.98459712    -0.14500
H237        H  0.28072052  0.21795845  0.94083316     0.20800
H238        H  0.19416398  0.25349057  0.07593492     0.16900
H239        H  0.10789909  0.14758657  0.06211266     0.19400
H240        H  0.36939678  0.32119253  0.95722357     0.12700
C241        C  0.72700449  0.74600657  0.97751894     0.16600
C242        C  0.76888348  0.79846825  0.96114019    -0.32400
C243        C  0.81962533  0.82633999  0.98527271     0.21000
C244        C  0.82795202  0.80352690  0.02436027     0.03200
C245        C  0.78675428  0.75048010  0.04002324    -0.22100
C246        C  0.73643679  0.72221897  0.01554031     0.12400
S247        S  0.66159697  0.70625075  0.95431727    -0.05800
C248        C  0.64782661  0.65660597  0.99553092    -0.09300
C249        C  0.69142091  0.67042272  0.02556833    -0.25900
S250        S  0.89071492  0.84551481  0.05050681    -0.03100
C251        C  0.90700605  0.89369254  0.00741799    -0.16500
C252        C  0.86525246  0.87768258  0.97495206    -0.14500
H253        H  0.76204391  0.81697684  0.93118468     0.20800
H254        H  0.79341003  0.73224793  0.07023322     0.16900
H255        H  0.68975473  0.64434039  0.05373111     0.19400
H256        H  0.86795962  0.90276319  0.94574616     0.12700
C257        C  0.21427625  0.02431694  0.02084215     0.16600
C258        C  0.27001007  0.04269596  0.03388241    -0.32400
C259        C  0.30209775  0.02785349  0.00642466     0.21000
C260        C  0.27938329  0.99547717  0.96804708     0.03200
C261        C  0.22412328  0.97825118  0.95447543    -0.22100
C262        C  0.19229182  0.99364540  0.98161766     0.12400
S263        S  0.16835337  0.03740775  0.04975171    -0.05800
C264        C  0.11965078  0.00311796  0.00754181    -0.09300
C265        C  0.13812061  0.98161130  0.97365497    -0.25900
S266        S  0.32350505  0.97813881  0.94113880    -0.03100
C267        C  0.37347498  0.01594342  0.98135173    -0.16500
C268        C  0.35667169  0.04063069  0.01381480    -0.14500
H269        H  0.28746211  0.06716865  0.06423537     0.20800
H270        H  0.20653734  0.95349272  0.92427088     0.16900
H271        H  0.11354664  0.95942049  0.94434204     0.19400
H272        H  0.38218908  0.06461023  0.04219604     0.12700
C273        C  0.75877043  0.03174659  0.97107902     0.16600
C274        C  0.81186892  0.04271702  0.95638788    -0.32400
C275        C  0.83862172  0.01922758  0.98131346     0.21000
C276        C  0.81434447  0.98744838  0.01982609     0.03200
C277        C  0.76058846  0.97520958  0.03386568    -0.22100
C278        C  0.73323717  0.99763014  0.00833415     0.12400
S279        S  0.72001648  0.05750515  0.94613676    -0.05800
C280        C  0.66817281  0.02039248  0.98537104    -0.09300
C281        C  0.68067792  0.99016666  0.01623582    -0.25900
S282        S  0.85548164  0.96626176  0.04712683    -0.03100
C283        C  0.90515896  0.99867097  0.00513783    -0.16500
C284        C  0.89008236  0.02476437  0.97218126    -0.14500
H285        H  0.83157752  0.06861643  0.92692024     0.20800
H286        H  0.74107186  0.94959745  0.06350216     0.16900
H287        H  0.65308222  0.96479802  0.04332774     0.19400
H288        H  0.91597066  0.04744386  0.94346287     0.12700
C289        C  0.98335719  0.25598585  0.48024628     0.16600
C290        C  0.97042508  0.20249898  0.46506895    -0.32400
C291        C  0.99033739  0.17288862  0.49057705     0.21000
C292        C  0.02080849  0.19501887  0.52991631     0.03200
C293        C  0.03476810  0.24895860  0.54456984    -0.22100
C294        C  0.01579382  0.27901927  0.51861306     0.12400
S295        S  0.96183996  0.29804718  0.45483894    -0.05800
C296        C  0.99841226  0.34768520  0.49552477    -0.09300
C297        C  0.02532334  0.33214588  0.52715232    -0.25900
S298        S  0.03872731  0.15139004  0.55726789    -0.03100
C299        C  0.00653140  0.10346258  0.51437769    -0.16500
C300        C  0.98264303  0.12064713  0.48115276    -0.14500
H301        H  0.94577297  0.18466882  0.43480315     0.20800
H302        H  0.05922463  0.26666353  0.57494171     0.16900
H303        H  0.04961256  0.35795352  0.55530443     0.19400
H304        H  0.96063299  0.09601028  0.45182626     0.12700
C305        C  0.02476970  0.73699885  0.48348391     0.16600
C306        C  0.03846057  0.79090982  0.46854727    -0.32400
C307        C  0.01724931  0.81968277  0.49320213     0.21000
C308        C  0.98481771  0.79640151  0.53156335     0.03200
C309        C  0.97010112  0.74199647  0.54595453    -0.22100
C310        C  0.99038715  0.71274153  0.52078342     0.12400
S311        S  0.04763558  0.69586755  0.45897496    -0.05800
C312        C  0.00919192  0.64499672  0.49861975    -0.09300
C313        C  0.98048817  0.65936489  0.52917918    -0.25900
S314        S  0.96547488  0.83924698  0.55796888    -0.03100
C315        C  0.99989699  0.88839717  0.51596186    -0.16500
C316        C  0.02532789  0.87209191  0.48369257    -0.14500
H317        H  0.06463717  0.80968117  0.43908523     0.20800
H318        H  0.94410963  0.72334802  0.57552343     0.16900
H319        H  0.95473341  0.63260122  0.55651554     0.19400
H320        H  0.04866848  0.89744092  0.45492602     0.12700
C321        C  0.02815559  0.50310709  0.71200502     0.16600
C322        C  0.05040303  0.51434056  0.75576347    -0.32400
C323        C  0.01226519  0.49448572  0.79185077     0.21000
C324        C  0.95454785  0.46443688  0.78469222     0.03200
C325        C  0.93231366  0.45300159  0.74094565    -0.22100
C326        C  0.97043197  0.47319554  0.70486882     0.12400
S327        S  0.06730347  0.52446379  0.66379714    -0.05800
C328        C  0.00525898  0.49301073  0.63363610    -0.09300
C329        C  0.95700802  0.46722310  0.65993599    -0.25900
S330        S  0.91530467  0.44469392  0.83284817    -0.03100
C331        C  0.97726333  0.47756035  0.86305813    -0.16500
C332        C  0.02559677  0.50209194  0.83680599    -0.14500
H333        H  0.09545526  0.53794812  0.76142853     0.20800
H334        H  0.88724992  0.42980386  0.73527992     0.16900
H335        H  0.91439682  0.44551470  0.64690163     0.19400
H336        H  0.06816212  0.52468879  0.84988017     0.12700
C337        C  0.02667502  0.51764480  0.28460012     0.16600
C338        C  0.04875818  0.53040594  0.24082761    -0.32400
C339        C  0.01067038  0.50878020  0.20481791     0.21000
C340        C  0.95308259  0.47646457  0.21203128     0.03200
C341        C  0.93095773  0.46410319  0.25580959    -0.22100
C342        C  0.96909728  0.48522047  0.29182463     0.12400
S343        S  0.06601341  0.53802498  0.33270140    -0.05800
C344        C  0.00427774  0.50219538  0.36293201    -0.09300
C345        C  0.95594113  0.47643415  0.33676441    -0.25900
S346        S  0.91400345  0.45346320  0.16389904    -0.03100
C347        C  0.97592942  0.48738672  0.13368386    -0.16500
C348        C  0.02406182  0.51519540  0.15989136    -0.14500
H349        H  0.09372509  0.55540419  0.23509209     0.20800
H350        H  0.88604139  0.43851573  0.26154713     0.16900
H351        H  0.91352741  0.45191590  0.34988534     0.19400
H352        H  0.06658378  0.53859536  0.14679496     0.12700
C353        C  0.01964569  0.19479400  0.98206443     0.16600
C354        C  0.03061032  0.24724098  0.96550292    -0.32400
C355        C  0.00491304  0.27364918  0.98748722     0.21000
C356        C  0.96884950  0.24842310  0.02371831     0.03200
C357        C  0.95924783  0.19671493  0.04110780    -0.22100
C358        C  0.98607389  0.17096551  0.01976374     0.12400
S359        S  0.04431065  0.15466877  0.95866187    -0.05800
C360        C  0.01106048  0.10607945  0.00131150    -0.09300
C361        C  0.98215879  0.12079805  0.03164816    -0.25900
S362        S  0.93941062  0.28599177  0.04410723    -0.03100
C363        C  0.97783807  0.33703913  0.00453632    -0.16500
C364        C  0.01096982  0.32504175  0.97681444    -0.14500
H365        H  0.05768331  0.26644936  0.93656419     0.20800
H366        H  0.93188333  0.17728581  0.06985602     0.16900
H367        H  0.95842586  0.09539684  0.06026265     0.19400
H368        H  0.03768931  0.35233530  0.95009582     0.12700
C369        C  0.02342123  0.81422227  0.02125260     0.16600
C370        C  0.03492212  0.77225563  0.03558672    -0.32400
C371        C  0.00762150  0.72041864  0.01312690     0.21000
C372        C  0.96944418  0.71021604  0.97866394     0.03200
C373        C  0.95923113  0.75279915  0.96346230    -0.22100
C374        C  0.98771823  0.80515208  0.98517598     0.12400
S375        S  0.04975357  0.87878241  0.04570412    -0.05800
C376        C  0.01402701  0.89489077  0.00577263    -0.09300
C377        C  0.98342537  0.85172495  0.97535317    -0.25900
S378        S  0.93830455  0.64333999  0.95755209    -0.03100
C379        C  0.97897824  0.62997673  0.99424689    -0.16500
C380        C  0.01394243  0.67476338  0.02169049    -0.14500
H381        H  0.06360974  0.77955271  0.06323874     0.20800
H382        H  0.93016568  0.74538572  0.93608050     0.16900
H383        H  0.95801319  0.85379314  0.94823876     0.19400
H384        H  0.04209472  0.67370369  0.04684730     0.12700
loop_ 
_geom_bond_atom_site_label_1 
_geom_bond_atom_site_label_2 
_geom_bond_distance 
_geom_bond_site_symmetry_2 
_ccdc_geom_bond_type 
O1           Ni9   1.914   1_554  S
O1           C11   1.280       .  A
O2           Ni9   1.915       .  S
O2           C12   1.280       .  A
O3           Ni9   1.921   1_554  S
O3           C13   1.281       .  A
O4           Ni9   1.923       .  S
O4           C14   1.281       .  A
O5          Ni10   1.915       .  S
O5           C14   1.280   1_455  A
O6          Ni10   1.915       .  S
O6           C13   1.280   1_456  A
O7          Ni10   1.921       .  S
O7           C12   1.282   1_455  A
O8          Ni10   1.921   1_554  S
O8           C11   1.282   1_455  A
Ni9         Ni10   2.390   1_655  S
C11         C347   1.472       .  S
C12         C331   1.472       .  S
C13         C363   1.465       .  S
C14         C379   1.467       .  S
O15         Ni23   1.919       .  S
O15          C25   1.281       .  A
O16         Ni23   1.916       .  S
O16          C26   1.280       .  A
O17         Ni23   1.915       .  S
O17          C27   1.280       .  A
O18         Ni23   1.915       .  S
O18          C28   1.280       .  A
O19         Ni24   1.920       .  S
O19          C28   1.282   1_655  A
O20         Ni24   1.921       .  S
O20          C27   1.282   1_655  A
O21         Ni24   1.918       .  S
O21          C26   1.280   1_655  A
O22         Ni24   1.917       .  S
O22          C25   1.280   1_655  A
Ni23        Ni24   2.390   1_455  S
C25         C296   1.464   1_455  S
C26         C312   1.463       .  S
C27         C328   1.472       .  S
C28         C344   1.471       .  S
C29         C251   1.489       .  S
C29          C30   1.423   1_655  A
C29          C34   1.421       .  A
C30         C376   1.495       .  S
C30          C31   1.419   1_565  A
C31         C264   1.490       .  S
C31          C32   1.419       .  A
C32         C232   1.489       .  S
C32          C33   1.419       .  A
C33         C360   1.493       .  S
C33          C34   1.421   1_445  A
C34         C283   1.493       .  S
C35         C184   1.495       .  S
C35          C36   1.419   1_655  A
C35          C40   1.420       .  A
C36         C315   1.487   1_455  S
C36          C37   1.422       .  A
C37         C203   1.493       .  S
C37          C38   1.419   1_565  A
C38         C171   1.495       .  S
C38          C39   1.422       .  A
C39         C299   1.488       .  S
C39          C40   1.420   1_445  A
C40         C219   1.494       .  S
O41         Ni49   1.916   1_554  S
O41          C51   1.281   1_565  A
O42         Ni49   1.917       .  S
O42          C52   1.281   1_565  A
O43         Ni49   1.917       .  S
O43          C53   1.280   1_565  A
O44         Ni49   1.915       .  S
O44          C54   1.280   1_565  A
O45         Ni50   1.923       .  S
O45          C54   1.281       .  A
O46         Ni50   1.922       .  S
O46          C53   1.281       .  A
O47         Ni50   1.924       .  S
O47          C52   1.282       .  A
O48         Ni50   1.923   1_554  S
O48          C51   1.282       .  A
Ni49        Ni50   2.389   1_565  S
C51         C152   1.474       .  S
C52         C139   1.475       .  S
C53         C280   1.467       .  S
C54         C267   1.466       .  S
O55         Ni63   1.918       .  S
O55          C65   1.281   1_545  A
O56         Ni63   1.920       .  S
O56          C66   1.281   1_545  A
O57         Ni63   1.915       .  S
O57          C67   1.281   1_545  A
O58         Ni63   1.916       .  S
O58          C68   1.281   1_545  A
O59         Ni64   1.924       .  S
O59          C68   1.282       .  A
O60         Ni64   1.924       .  S
O60          C67   1.282       .  A
O61         Ni64   1.925       .  S
O61          C66   1.282       .  A
O62         Ni64   1.922       .  S
O62          C65   1.281       .  A
Ni63        Ni64   2.388   1_545  S
C65         C216   1.468       .  S
C66         C200   1.469       .  S
C67         C136   1.475       .  S
C68         C155   1.475       .  S
O69         Ni77   1.918       .  S
O69          C79   1.281       .  A
O70         Ni77   1.918   1_556  S
O70          C80   1.281       .  A
O71         Ni77   1.915       .  S
O71          C81   1.280   1_554  A
O72         Ni77   1.914       .  S
O72          C82   1.280       .  A
O73         Ni78   1.919       .  S
O73          C82   1.281       .  A
O74         Ni78   1.920   1_556  S
O74          C81   1.280       .  A
O75         Ni78   1.919   1_556  S
O75          C80   1.282       .  A
O76         Ni78   1.919       .  S
O76          C79   1.282       .  A
Ni77        Ni78   2.390       .  S
C79         C123   1.473       .  S
C80         C104   1.473       .  S
C81         C248   1.464       .  S
C82         C235   1.463       .  S
O83         Ni91   1.922       .  S
O83          C93   1.282       .  A
O84         Ni91   1.921       .  S
O84          C94   1.282       .  A
O85         Ni91   1.916       .  S
O85          C95   1.280       .  A
O86         Ni91   1.916       .  S
O86          C96   1.280       .  A
O87         Ni92   1.927       .  S
O87          C96   1.282       .  A
O88         Ni92   1.930       .  S
O88          C95   1.283       .  A
O89         Ni92   1.916       .  S
O89          C94   1.280       .  A
O90         Ni92   1.915       .  S
O90          C93   1.280       .  A
Ni91        Ni92   2.389       .  S
C93         C120   1.473       .  S
C94         C107   1.473       .  S
C95         C168   1.471       .  S
C96         C187   1.469       .  S
C97         C102   1.387       .  A
C97          C98   1.401       .  A
C97         S103   1.706       .  A
C98          C99   1.401       .  A
C98         H109   1.083       .  S
C99         C108   1.370       .  A
C99         C100   1.387       .  A
C100        C101   1.403       .  A
C100        S106   1.709       .  A
C101        C102   1.404       .  A
C101        H110   1.083       .  S
C102        C105   1.372       .  A
S103        C104   1.723       .  A
C104        C105   1.388       .  A
C105        H111   1.083       .  S
S106        C107   1.725       .  A
C107        C108   1.386       .  A
C108        H112   1.083       .  S
C113        C118   1.387       .  A
C113        C114   1.401       .  A
C113        S119   1.706       .  A
C114        C115   1.402       .  A
C114        H125   1.083       .  S
C115        C124   1.371       .  A
C115        C116   1.387       .  A
C116        C117   1.402       .  A
C116        S122   1.707       .  A
C117        C118   1.403       .  A
C117        H126   1.083       .  S
C118        C121   1.372       .  A
S119        C120   1.723       .  A
C120        C121   1.387       .  A
C121        H127   1.083       .  S
S122        C123   1.724       .  A
C123        C124   1.387       .  A
C124        H128   1.083       .  S
C129        C134   1.386   1_565  A
C129        C130   1.402       .  A
C129        S135   1.710       .  A
C130        C131   1.404       .  A
C130        H141   1.083       .  S
C131        C140   1.370       .  A
C131        C132   1.386   1_565  A
C132        C133   1.402       .  A
C132        S138   1.710       .  A
C133        C134   1.404       .  A
C133        H142   1.083       .  S
C134        C137   1.370       .  A
S135        C136   1.724       .  A
C136        C137   1.388   1_565  A
C137        H143   1.083       .  S
S138        C139   1.724       .  A
C139        C140   1.388   1_545  A
C140        H144   1.083       .  S
C145        C150   1.387   1_545  A
C145        C146   1.402       .  A
C145        S151   1.709       .  A
C146        C147   1.403       .  A
C146        H157   1.083       .  S
C147        C156   1.370       .  A
C147        C148   1.387   1_545  A
C148        C149   1.402       .  A
C148        S154   1.709       .  A
C149        C150   1.403       .  A
C149        H158   1.083       .  S
C150        C153   1.370       .  A
S151        C152   1.724       .  A
C152        C153   1.388   1_545  A
C153        H159   1.083       .  S
S154        C155   1.724       .  A
C155        C156   1.388   1_565  A
C156        H160   1.083       .  S
C161        C166   1.387       .  A
C161        C162   1.404       .  A
C161        S167   1.712       .  A
C162        C163   1.405       .  A
C162        H173   1.083       .  S
C163        C172   1.371       .  A
C163        C164   1.386       .  A
C164        C165   1.402       .  A
C164        S170   1.709       .  A
C165        C166   1.404       .  A
C165        H174   1.083       .  S
C166        C169   1.371       .  A
S167        C168   1.722       .  A
C168        C169   1.386       .  A
C169        H175   1.083       .  S
S170        C171   1.726       .  A
C171        C172   1.390       .  A
C172        H176   1.083       .  S
C177        C182   1.386       .  A
C177        C178   1.402       .  A
C177        S183   1.707       .  A
C178        C179   1.403       .  A
C178        H189   1.083       .  S
C179        C188   1.371       .  A
C179        C180   1.387       .  A
C180        C181   1.404       .  A
C180        S186   1.711       .  A
C181        C182   1.405       .  A
C181        H190   1.083       .  S
C182        C185   1.372       .  A
S183        C184   1.726       .  A
C184        C185   1.390       .  A
C185        H191   1.083       .  S
S186        C187   1.722       .  A
C187        C188   1.385       .  A
C188        H192   1.083       .  S
C193        C198   1.387   1_545  A
C193        C194   1.403       .  A
C193        S199   1.709       .  A
C194        C195   1.404       .  A
C194        H205   1.083       .  S
C195        C204   1.373       .  A
C195        C196   1.387   1_545  A
C196        C197   1.403       .  A
C196        S202   1.708       .  A
C197        C198   1.404       .  A
C197        H206   1.083       .  S
C198        C201   1.374       .  A
S199        C200   1.722   1_545  A
C200        C201   1.386       .  A
C201        H207   1.083       .  S
S202        C203   1.727       .  A
C203        C204   1.388   1_565  A
C204        H208   1.083       .  S
C209        C214   1.387       .  A
C209        C210   1.402       .  A
C209        S215   1.710       .  A
C210        C211   1.403       .  A
C210        H221   1.083       .  S
C211        C220   1.369       .  A
C211        C212   1.386   1_565  A
C212        C213   1.402       .  A
C212        S218   1.708       .  A
C213        C214   1.403   1_545  A
C213        H222   1.083       .  S
C214        C217   1.371   1_565  A
S215        C216   1.721       .  A
C216        C217   1.386   1_565  A
C217        H223   1.083       .  S
S218        C219   1.727   1_545  A
C219        C220   1.388       .  A
C220        H224   1.083       .  S
C225        C230   1.387   1_556  A
C225        C226   1.399       .  A
C225        S231   1.704       .  A
C226        C227   1.400       .  A
C226        H237   1.083       .  S
C227        C236   1.368       .  A
C227        C228   1.388   1_556  A
C228        C229   1.402       .  A
C228        S234   1.709       .  A
C229        C230   1.403       .  A
C229        H238   1.083       .  S
C230        C233   1.370       .  A
S231        C232   1.726   1_556  A
C232        C233   1.388       .  A
C233        H239   1.083       .  S
S234        C235   1.721       .  A
C235        C236   1.383   1_554  A
C236        H240   1.083       .  S
C241        C246   1.388   1_556  A
C241        C242   1.402       .  A
C241        S247   1.710       .  A
C242        C243   1.403       .  A
C242        H253   1.083       .  S
C243        C252   1.370       .  A
C243        C244   1.387   1_556  A
C244        C245   1.400       .  A
C244        S250   1.705       .  A
C245        C246   1.401       .  A
C245        H254   1.083       .  S
C246        C249   1.368       .  A
S247        C248   1.721       .  A
C248        C249   1.383   1_556  A
C249        H255   1.083       .  S
S250        C251   1.725       .  A
C251        C252   1.388   1_554  A
C252        H256   1.083       .  S
C257        C262   1.387   1_544  A
C257        C258   1.403       .  A
C257        S263   1.706       .  A
C258        C259   1.403       .  A
C258        H269   1.083       .  S
C259        C268   1.373       .  A
C259        C260   1.388   1_544  A
C260        C261   1.402       .  A
C260        S266   1.706       .  A
C261        C262   1.402       .  A
C261        H270   1.083       .  S
C262        C265   1.371       .  A
S263        C264   1.727       .  A
C264        C265   1.387   1_544  A
C265        H271   1.083       .  S
S266        C267   1.720   1_565  A
C267        C268   1.385   1_556  A
C268        H272   1.083       .  S
C273        C278   1.387   1_546  A
C273        C274   1.402       .  A
C273        S279   1.708       .  A
C274        C275   1.402       .  A
C274        H285   1.083       .  S
C275        C284   1.369       .  A
C275        C276   1.386   1_546  A
C276        C277   1.402       .  A
C276        S282   1.707       .  A
C277        C278   1.403       .  A
C277        H286   1.083       .  S
C278        C281   1.371       .  A
S279        C280   1.720       .  A
C280        C281   1.385   1_546  A
C281        H287   1.083       .  S
S282        C283   1.727       .  A
C283        C284   1.388   1_564  A
C284        H288   1.083       .  S
C289        C294   1.388   1_655  A
C289        C290   1.402       .  A
C289        S295   1.708       .  A
C290        C291   1.402       .  A
C290        H301   1.083       .  S
C291        C300   1.370       .  A
C291        C292   1.387   1_655  A
C292        C293   1.401       .  A
C292        S298   1.705       .  A
C293        C294   1.402       .  A
C293        H302   1.083       .  S
C294        C297   1.370       .  A
S295        C296   1.720       .  A
C296        C297   1.384   1_655  A
C297        H303   1.083       .  S
S298        C299   1.725       .  A
C299        C300   1.387   1_455  A
C300        H304   1.083       .  S
C305        C310   1.388   1_455  A
C305        C306   1.400       .  A
C305        S311   1.707       .  A
C306        C307   1.401       .  A
C306        H317   1.083       .  S
C307        C316   1.368       .  A
C307        C308   1.387   1_455  A
C308        C309   1.401       .  A
C308        S314   1.706       .  A
C309        C310   1.402       .  A
C309        H318   1.083       .  S
C310        C313   1.370       .  A
S311        C312   1.720       .  A
C312        C313   1.384   1_455  A
C313        H319   1.083       .  S
S314        C315   1.725       .  A
C315        C316   1.387   1_655  A
C316        H320   1.083       .  S
C321        C326   1.387   1_455  A
C321        C322   1.402       .  A
C321        S327   1.706       .  A
C322        C323   1.402       .  A
C322        H333   1.083       .  S
C323        C332   1.371       .  A
C323        C324   1.387   1_455  A
C324        C325   1.401       .  A
C324        S330   1.706       .  A
C325        C326   1.402       .  A
C325        H334   1.083       .  S
C326        C329   1.371       .  A
S327        C328   1.724       .  A
C328        C329   1.387   1_455  A
C329        H335   1.083       .  S
S330        C331   1.724       .  A
C331        C332   1.387   1_655  A
C332        H336   1.083       .  S
C337        C342   1.387   1_455  A
C337        C338   1.401       .  A
C337        S343   1.706       .  A
C338        C339   1.402       .  A
C338        H349   1.083       .  S
C339        C348   1.370       .  A
C339        C340   1.387   1_455  A
C340        C341   1.401       .  A
C340        S346   1.706       .  A
C341        C342   1.402       .  A
C341        H350   1.083       .  S
C342        C345   1.371       .  A
S343        C344   1.723       .  A
C344        C345   1.386   1_455  A
C345        H351   1.083       .  S
S346        C347   1.724       .  A
C347        C348   1.386   1_655  A
C348        H352   1.083       .  S
C353        C358   1.386   1_456  A
C353        C354   1.400       .  A
C353        S359   1.704       .  A
C354        C355   1.401       .  A
C354        H365   1.083       .  S
C355        C364   1.369       .  A
C355        C356   1.388   1_456  A
C356        C357   1.402       .  A
C356        S362   1.709       .  A
C357        C358   1.403       .  A
C357        H366   1.083       .  S
C358        C361   1.370       .  A
S359        C360   1.726   1_556  A
C360        C361   1.389   1_455  A
C361        H367   1.083       .  S
S362        C363   1.721       .  A
C363        C364   1.384   1_654  A
C364        H368   1.083       .  S
C369        C374   1.386   1_454  A
C369        C370   1.401       .  A
C369        S375   1.706       .  A
C370        C371   1.402       .  A
C370        H381   1.083       .  S
C371        C380   1.370       .  A
C371        C372   1.387   1_454  A
C372        C373   1.402       .  A
C372        S378   1.710       .  A
C373        C374   1.404       .  A
C373        H382   1.083       .  S
C374        C377   1.370       .  A
S375        C376   1.727       .  A
C376        C377   1.390   1_454  A
C377        H383   1.083       .  S
S378        C379   1.721       .  A
C379        C380   1.385   1_656  A
C380        H384   1.083       .  S
