geometry optimzed in LAMMPS
_audit_creation_date              2020-11-30 
_audit_creation_method            'lammps2cif' 
_symmetry_space_group_name_H-M    'P1' 
_symmetry_Int_Tables_number       1 
_symmetry_cell_setting            triclinic 
loop_ 
_symmetry_equiv_pos_as_xyz 
  x,y,z 
_cell_length_a                    27.998826904876665 
_cell_length_b                    27.808894242042197 
_cell_length_c                    30.950301377627248 
_cell_angle_alpha                 89.38972688205354 
_cell_angle_beta                  91.7574292899419 
_cell_angle_gamma                 120.0166332371597 
loop_ 
_atom_site_label 
_atom_site_type_symbol 
_atom_site_fract_x 
_atom_site_fract_y 
_atom_site_fract_z 
_atom_site_charge 
C1          C  0.00133163  0.96218347  0.72220308     0.02970
C2          C  0.94854832  0.94948322  0.73318509    -0.13180
C3          C  0.93371023  0.99053608  0.73073227     0.00470
C4          C  0.97149715  0.04347308  0.71645030    -0.11700
C5          C  0.02357441  0.05519610  0.70353410     0.02960
C6          C  0.03818695  0.01421660  0.70573745    -0.11120
H7          H  0.92060864  0.90902429  0.74644350     0.08560
H8          H  0.96189217  0.07662835  0.71846860     0.06090
H9          H  0.08012570  0.02460995  0.69919395     0.05940
O10         O  0.14766936  0.76348467  0.81180889    -0.71940
O11         O  0.14570717  0.77861948  0.68946365    -0.72150
O12         O  0.19443606  0.74357285  0.74502567    -0.72010
O13         O  0.09756172  0.79833456  0.75550418    -0.72020
O14         O  0.16763388  0.88185438  0.76395131    -0.71980
O15         O  0.26397755  0.82680973  0.74634251    -0.72000
O16         O  0.21383753  0.86334731  0.69482824    -0.71940
O17         O  0.22036173  0.84552282  0.81684949    -0.72130
V18         V  0.14749114  0.77261414  0.75092569     1.35240
V19         V  0.21497645  0.85303400  0.75598506     1.35170
C20         C  0.18519211  0.80150103  0.83513014     0.77300
C21         C  0.18237409  0.82192712  0.67110505     0.77360
C22         C  0.24187885  0.77752344  0.73258636     0.77230
C23         C  0.11610620  0.84943724  0.76106421     0.77190
C24         C  0.33116346  0.71846724  0.62477862     0.02970
C25         C  0.33730492  0.70695737  0.66819160    -0.13180
C26         C  0.34301142  0.66173557  0.67835176     0.00470
C27         C  0.35638130  0.63684486  0.64539376    -0.11700
C28         C  0.37165114  0.66387356  0.60482834     0.02960
C29         C  0.34525662  0.69388050  0.59205906    -0.11120
H30         H  0.32787948  0.72635088  0.69404813     0.08560
H31         H  0.36356476  0.60299196  0.65354093     0.06090
H32         H  0.34737245  0.70819488  0.55912382     0.05940
O33         O  0.22555508  0.37542577  0.80877958    -0.71940
O34         O  0.23733248  0.40279105  0.68859840    -0.72150
O35         O  0.26250056  0.46451165  0.76124259    -0.72010
O36         O  0.20014690  0.31293213  0.73723247    -0.72020
O37         O  0.11858707  0.30469470  0.73388678    -0.71980
O38         O  0.18147284  0.45690157  0.75927583    -0.72000
O39         O  0.15653941  0.39590419  0.68597182    -0.71940
O40         O  0.14415175  0.36705972  0.80681471    -0.72130
V41         V  0.22968574  0.38864604  0.74882080     1.35240
V42         V  0.15150825  0.38092177  0.74647466     1.35170
C43         C  0.18498604  0.37122841  0.82870656     0.77300
C44         C  0.19890951  0.40350044  0.66654338     0.77360
C45         C  0.23283086  0.48635753  0.76582577     0.77230
C46         C  0.14895832  0.28346836  0.73062462     0.77190
O47         O  0.58958789  0.83576443  0.80451211    -0.71940
O48         O  0.62215267  0.86006465  0.68562852    -0.72150
O49         O  0.53464493  0.79296264  0.72962461    -0.72010
O50         O  0.67814977  0.90354513  0.76003459    -0.72020
O51         O  0.70154904  0.83997744  0.76719481    -0.71980
O52         O  0.56148441  0.73296136  0.72346232    -0.72000
O53         O  0.65290469  0.80220872  0.68769925    -0.71940
O54         O  0.60706745  0.76797911  0.80437308    -0.72130
V55         V  0.60663121  0.84696439  0.74535969     1.35240
V56         V  0.63059730  0.78697841  0.74641066     1.35170
C57         C  0.59182993  0.79715072  0.82460486     0.77300
C58         C  0.63867719  0.83188822  0.66560008     0.77360
C59         C  0.52955346  0.75046234  0.71141740     0.77230
C60         C  0.71438850  0.89044315  0.76824275     0.77190
C61         C  0.59563442  0.85519035  0.55514640     0.02970
C62         C  0.62608611  0.86716766  0.59454926    -0.13180
C63         C  0.63063316  0.82613129  0.61778134     0.00470
C64         C  0.61117542  0.77379284  0.59840074    -0.11700
C65         C  0.58665494  0.76126784  0.55639066     0.02960
C66         C  0.57726389  0.80225675  0.53573535    -0.11120
H67         H  0.64131624  0.90726337  0.60987458     0.08560
H68         H  0.61024863  0.74091501  0.61798009     0.06090
H69         H  0.55354641  0.79219837  0.50572806     0.05940
C70         C  0.17063798  0.76015048  0.56063655     0.02970
C71         C  0.15554622  0.77410155  0.59944213    -0.13180
C72         C  0.19328853  0.82018314  0.62430608     0.00470
C73         C  0.24589213  0.85643582  0.60757757    -0.11700
C74         C  0.26125317  0.84750487  0.56644758     0.02960
C75         C  0.22324605  0.79766191  0.54434939    -0.11120
H76         H  0.11533557  0.74644030  0.61225772     0.08560
H77         H  0.27643106  0.88878395  0.62843313     0.06090
H78         H  0.23534668  0.78657314  0.51516839     0.05940
C79         C  0.15377141  0.73259751  0.94477814     0.02970
C80         C  0.14637510  0.74784813  0.90267220    -0.13180
C81         C  0.18885972  0.79364633  0.88231710     0.00470
C82         C  0.23712420  0.82843000  0.90613340    -0.11700
C83         C  0.24299769  0.81985653  0.95051527     0.02960
C84         C  0.20159522  0.76994854  0.96927290    -0.11120
H85         H  0.10911805  0.72053899  0.88410402     0.08560
H86         H  0.27141126  0.86120036  0.88929354     0.06090
H87         H  0.20760686  0.75887271  0.00171027     0.05940
C88         C  0.55211944  0.81609378  0.93624902     0.02970
C89         C  0.57225083  0.82693479  0.89418701    -0.13180
C90         C  0.57744870  0.78730387  0.87067948     0.00470
C91         C  0.56740931  0.73809293  0.89086551    -0.11700
C92         C  0.55731307  0.72949264  0.93545143     0.02960
C93         C  0.54567022  0.76743362  0.95697126    -0.11120
H94         H  0.58142598  0.86559879  0.87867827     0.08560
H95         H  0.56559171  0.70576979  0.87081413     0.06090
H96         H  0.52911954  0.75826532  0.98872297     0.05940
C97         C  0.18030344  0.44569663  0.55273579     0.02970
C98         C  0.17338095  0.43346501  0.59713167    -0.13180
C99         C  0.20456228  0.41413288  0.61943258     0.00470
C100        C  0.24396118  0.40800935  0.59713318    -0.11700
C101        C  0.26161006  0.43227858  0.55644800     0.02960
C102        C  0.22717539  0.44856399  0.53330575    -0.11120
H103        H  0.14370883  0.43929384  0.61456872     0.08560
H104        H  0.26214632  0.38580573  0.61255055     0.06090
H105        H  0.23712214  0.46407422  0.50076741     0.05940
C106        C  0.16351428  0.41287801  0.93954950     0.02970
C107        C  0.21204776  0.41970143  0.96137673    -0.13180
C108        C  0.25050097  0.40995098  0.93973507     0.00470
C109        C  0.23701077  0.38717154  0.89815193    -0.11700
C110        C  0.18937631  0.37932304  0.87601553     0.02960
C111        C  0.15370106  0.39288558  0.89652926    -0.11120
H112        H  0.22126601  0.43371744  0.99448521     0.08560
H113        H  0.26684032  0.38098126  0.88122130     0.06090
H114        H  0.12009619  0.39159478  0.87738416     0.05940
C115        C  0.48554008  0.50590360  0.99172646     0.00410
C116        C  0.51118397  0.47970256  0.01201089     0.00410
C117        C  0.96350089  0.46936943  0.00071652     0.00410
C118        C  0.01508980  0.49655419  0.98286081     0.00410
C119        C  0.51387359  0.50211519  0.47862004     0.00410
C120        C  0.48545154  0.52689868  0.49463090     0.00410
C121        C  0.04094733  0.53320038  0.48986921     0.00410
C122        C  0.98564553  0.50854776  0.47688503     0.00410
C123        C  0.50434591  0.01525801  0.01289563     0.00410
C124        C  0.47158408  0.95909824  0.00288629     0.00410
C125        C  0.49206739  0.98799585  0.50809877     0.00410
C126        C  0.51442586  0.04128817  0.49158548     0.00410
O127        O  0.83186558  0.24178431  0.29176386    -0.71940
O128        O  0.84492047  0.22303087  0.17320820    -0.72150
O129        O  0.78208514  0.24770028  0.21674159    -0.72010
O130        O  0.89490319  0.21553654  0.24541889    -0.72020
O131        O  0.83250342  0.12793324  0.24875308    -0.71980
O132        O  0.71979859  0.16088490  0.22316296    -0.72000
O133        O  0.78088582  0.13637413  0.17655744    -0.71940
O134        O  0.77081021  0.15438699  0.29740184    -0.72130
V135        V  0.83721675  0.23030619  0.23237911     1.35240
V136        V  0.77747366  0.14641270  0.23687643     1.35170
C137        C  0.79949295  0.20175043  0.31507577     0.77300
C138        C  0.81162328  0.17836059  0.15403784     0.77360
C139        C  0.73275848  0.20917517  0.21106354     0.77230
C140        C  0.88251299  0.16557717  0.24946938     0.77190
C141        C  0.66653387  0.31234138  0.25074529     0.02970
C142        C  0.63283369  0.32063720  0.27769524    -0.13180
C143        C  0.64938454  0.33775310  0.32066250     0.00470
C144        C  0.70000678  0.34606194  0.33663673    -0.11700
C145        C  0.73881436  0.34620226  0.30815468     0.02960
C146        C  0.71962719  0.32522079  0.26614456    -0.11120
H147        H  0.59233090  0.31118525  0.26560591     0.08560
H148        H  0.71068088  0.35813546  0.37018297     0.06090
H149        H  0.74698082  0.32089626  0.24486680     0.05940
O150        O  0.34873475  0.13912801  0.32986799    -0.71940
O151        O  0.39365443  0.15811298  0.21379180    -0.72150
O152        O  0.44117342  0.20322302  0.29154498    -0.72010
O153        O  0.29912009  0.09293971  0.25354420    -0.72020
O154        O  0.27612171  0.15662850  0.24552763    -0.71980
O155        O  0.41904265  0.26725938  0.28238399    -0.72000
O156        O  0.37036046  0.22132218  0.20496026    -0.71940
O157        O  0.32789626  0.20423492  0.32256936    -0.72130
V158        V  0.37011509  0.14952248  0.27167446     1.35240
V159        V  0.34825583  0.21076118  0.26361607     1.35170
C160        C  0.33813659  0.17358058  0.34715597     0.77300
C161        C  0.38974959  0.19285270  0.18944264     0.77360
C162        C  0.45238832  0.25280150  0.29705218     0.77230
C163        C  0.26343391  0.10625520  0.24324233     0.77190
O164        O  0.76800483  0.60746084  0.31371573    -0.71940
O165        O  0.76794390  0.58489541  0.19422085    -0.72150
O166        O  0.76911323  0.52906300  0.26674500    -0.72010
O167        O  0.76919285  0.66403766  0.24338895    -0.72020
O168        O  0.85886120  0.70734351  0.24969647    -0.71980
O169        O  0.85855322  0.57321455  0.26290020    -0.72000
O170        O  0.85749936  0.63320426  0.19412494    -0.71940
O171        O  0.85728617  0.64575807  0.31726936    -0.72130
V172        V  0.77023488  0.59698887  0.25415350     1.35240
V173        V  0.85637699  0.63925034  0.25574352     1.35170
C174        C  0.81194299  0.62765602  0.33633444     0.77300
C175        C  0.81187305  0.60648940  0.17333542     0.77360
C176        C  0.81450617  0.52944032  0.27103076     0.77230
C177        C  0.81489371  0.70888918  0.24478709     0.77190
C178        C  0.82871440  0.23447104  0.04101364     0.02970
C179        C  0.78051980  0.19189896  0.01996618    -0.13180
C180        C  0.74148664  0.14506881  0.04331880     0.00470
C181        C  0.75391681  0.14046114  0.08707329    -0.11700
C182        C  0.80406157  0.17870521  0.10677027     0.02960
C183        C  0.84056390  0.22551712  0.08376177    -0.11120
H184        H  0.77233752  0.19639609  0.98627837     0.08560
H185        H  0.72248395  0.10988716  0.10738422     0.06090
H186        H  0.87606765  0.25788129  0.10111977     0.05940
C187        C  0.82698551  0.55566471  0.06544141     0.02970
C188        C  0.77584933  0.54378585  0.04539136    -0.13180
C189        C  0.74193457  0.56180170  0.06449809     0.00470
C190        C  0.76014762  0.59062594  0.10407607    -0.11700
C191        C  0.80759956  0.59771010  0.12607201     0.02960
C192        C  0.84301692  0.58449063  0.10520969    -0.11120
H193        H  0.76145577  0.51806318  0.01664190     0.08560
H194        H  0.73490104  0.60417932  0.11992627     0.06090
H195        H  0.88084767  0.59212726  0.12177496     0.05940
C196        C  0.43458638  0.16610723  0.08162495     0.02970
C197        C  0.44600631  0.21533014  0.05945554    -0.13180
C198        C  0.43964344  0.25738643  0.07916786     0.00470
C199        C  0.42052436  0.24885922  0.12166857    -0.11700
C200        C  0.40787146  0.20004624  0.14412230     0.02960
C201        C  0.41456864  0.15893385  0.12380734    -0.11120
H202        H  0.46112097  0.22160503  0.02717106     0.08560
H203        H  0.41716738  0.28120815  0.13806897     0.06090
H204        H  0.40431085  0.12112017  0.14118206     0.05940
C205        C  0.84033304  0.59962822  0.45135071     0.02970
C206        C  0.79062302  0.58981803  0.47075541    -0.13180
C207        C  0.74877487  0.59368510  0.44611749     0.00470
C208        C  0.75934349  0.61183040  0.40316959    -0.11700
C209        C  0.80843412  0.62383963  0.38388375     0.02960
C210        C  0.84781833  0.61756909  0.40777809    -0.11120
H211        H  0.78366367  0.57909855  0.50434608     0.08560
H212        H  0.72720734  0.61256902  0.38326624     0.06090
H213        H  0.88141279  0.62023803  0.38968334     0.05940
C214        C  0.82215792  0.28085345  0.41977642     0.02970
C215        C  0.83272434  0.26189734  0.38102190    -0.13180
C216        C  0.79354179  0.21207962  0.36102851     0.00470
C217        C  0.74591957  0.17612400  0.38296036    -0.11700
C218        C  0.73176814  0.19317045  0.42077813     0.02960
C219        C  0.76989244  0.24631341  0.43865685    -0.11120
H220        H  0.87153024  0.28641122  0.36524916     0.08560
H221        H  0.71808208  0.13566336  0.36905146     0.06090
H222        H  0.75777557  0.26103511  0.46605682     0.05940
C223        C  0.40890837  0.17281420  0.44884180     0.02970
C224        C  0.43426439  0.23019233  0.45950606    -0.13180
C225        C  0.41476135  0.26416195  0.44091241     0.00470
C226        C  0.37445180  0.24205668  0.40737222    -0.11700
C227        C  0.35222954  0.18677855  0.39374111     0.02960
C228        C  0.36441634  0.15147174  0.41836421    -0.11120
H229        H  0.47088160  0.24969938  0.48014710     0.08560
H230        H  0.36459682  0.26958994  0.38909328     0.06090
H231        H  0.34348270  0.10806199  0.40930506     0.05940
C232        C  0.97635733  0.03244078  0.24226342     0.02970
C233        C  0.02872367  0.04049226  0.23581781    -0.13180
C234        C  0.03593062  0.99482436  0.22948403     0.00470
C235        C  0.99020405  0.94105954  0.22935005    -0.11700
C236        C  0.93746884  0.93341659  0.23599214     0.02960
C237        C  0.93066877  0.97898593  0.24281400    -0.11120
H238        H  0.06380710  0.08235121  0.23545035     0.08560
H239        H  0.99560278  0.90552344  0.22456772     0.06090
H240        H  0.88980303  0.97298357  0.24748923     0.05940
C241        C  0.83104956  0.78916671  0.20216611    -0.09310
C242        C  0.81981433  0.76325407  0.24257421     0.06880
C243        C  0.83737797  0.79567897  0.28055979    -0.03080
C244        C  0.87243311  0.85279034  0.27777459    -0.07530
C245        C  0.88982205  0.87750806  0.23743139     0.06000
C246        C  0.86627411  0.84641657  0.19939674    -0.02550
Br247      Br  0.88595527  0.87969678  0.14341176    -0.02250
H248        H  0.81822711  0.76433090  0.17285577     0.09910
H249        H  0.89000559  0.87703792  0.30708853     0.07930
Br250      Br  0.82338307  0.76246717  0.33686065    -0.02680
C251        C  0.12307250  0.04117044  0.19127754    -0.09310
C252        C  0.09227591  0.00553801  0.22462015     0.06880
C253        C  0.11935666  0.99379797  0.25864944    -0.03080
C254        C  0.17688116  0.02280795  0.26145355    -0.07530
C255        C  0.20715077  0.06415888  0.23132255     0.06000
C256        C  0.18041865  0.07104955  0.19467414    -0.02550
Br257      Br  0.22032394  0.12420100  0.15064738    -0.02250
H258        H  0.10235498  0.05001692  0.16486376     0.09910
H259        H  0.19757078  0.01741504  0.28968066     0.07930
Br260      Br  0.08027648  0.94646505  0.30590118    -0.02680
C261        C  0.81085531  0.42255094  0.34882858    -0.09310
C262        C  0.80020296  0.38183392  0.31786256     0.06880
C263        C  0.83303883  0.40508173  0.28128055    -0.03080
C264        C  0.83828222  0.45470381  0.26478167    -0.07530
C265        C  0.81755612  0.48230743  0.28907771     0.06000
C266        C  0.80598315  0.46731719  0.33301291    -0.02550
Br267      Br  0.76865723  0.49310016  0.36820095    -0.02250
H268        H  0.80106992  0.41039514  0.38217391     0.09910
H269        H  0.85621588  0.47011904  0.23364705     0.07930
Br270      Br  0.86498959  0.36827723  0.25226890    -0.02680
C271        C  0.51935740  0.26672717  0.35525161    -0.09310
C272        C  0.50148883  0.29046411  0.32287566     0.06880
C273        C  0.53444500  0.34749247  0.31384163    -0.03080
C274        C  0.58912373  0.37513833  0.32958823    -0.07530
C275        C  0.61072730  0.34342760  0.34823829     0.06000
C276        C  0.57424069  0.29448710  0.36949450    -0.02550
Br277      Br  0.60035847  0.25570945  0.40577715    -0.02250
H278        H  0.49253288  0.22451678  0.36588116     0.09910
H279        H  0.61714597  0.41572900  0.31664752     0.07930
Br280      Br  0.51224643  0.38578480  0.27331272    -0.02680
C281        C  0.93226975  0.13301071  0.20825448    -0.09310
C282        C  0.92409142  0.14946750  0.24860788     0.06880
C283        C  0.94281031  0.13560343  0.28663926    -0.03080
C284        C  0.96500413  0.10067027  0.28409066    -0.07530
C285        C  0.96779988  0.07966668  0.24388392     0.06000
C286        C  0.95356076  0.09763613  0.20564985    -0.02550
Br287      Br  0.95499763  0.06860892  0.14992564    -0.02250
H288        H  0.91683946  0.14305394  0.17899951     0.09910
H289        H  0.97614169  0.08663981  0.31347773     0.07930
Br290      Br  0.93341003  0.15887945  0.34225570    -0.02680
C291        C  0.63850759  0.19420077  0.20891985    -0.09310
C292        C  0.69158181  0.22141381  0.19222117     0.06880
C293        C  0.70834420  0.27067322  0.16836852    -0.03080
C294        C  0.68179088  0.30090049  0.17583122    -0.07530
C295        C  0.64381209  0.28263345  0.20915264     0.06000
C296        C  0.61197603  0.22473546  0.21438480    -0.02550
Br297      Br  0.54392354  0.19122601  0.24421153    -0.02250
H298        H  0.62181472  0.15353163  0.22346996     0.09910
H299        H  0.70125645  0.34375676  0.16547635     0.07930
Br300      Br  0.77301646  0.30336745  0.13393183    -0.02680
C301        C  0.67081392  0.14533931  0.48455710    -0.09310
C302        C  0.67619153  0.15505117  0.43971487     0.06880
C303        C  0.62804721  0.12561222  0.41306672    -0.03080
C304        C  0.57845550  0.08511467  0.43063267    -0.07530
C305        C  0.57255591  0.07504813  0.47528814     0.06000
C306        C  0.61953685  0.10730689  0.50239957    -0.02550
Br307      Br  0.61554040  0.10550803  0.56390173    -0.02250
H308        H  0.70644799  0.16810832  0.50598562     0.09910
H309        H  0.54316420  0.06372441  0.40897561     0.07930
Br310      Br  0.62417791  0.14328746  0.35314241    -0.02680
C311        C  0.42738968  0.09406255  0.43489921    -0.09310
C312        C  0.43262479  0.13637919  0.46318168     0.06880
C313        C  0.46062044  0.14206323  0.50351377    -0.03080
C314        C  0.48663554  0.11069234  0.51216816    -0.07530
C315        C  0.48052393  0.06871858  0.48381466     0.06000
C316        C  0.44796098  0.05875848  0.44595899    -0.02550
Br317      Br  0.43004708  0.99736254  0.40807233    -0.02250
H318        H  0.40766562  0.08796258  0.40332917     0.09910
H319        H  0.51045779  0.11785922  0.54203571     0.07930
Br320      Br  0.46088131  0.18691068  0.55030434    -0.02680
C321        C  0.59469718  0.02497160  0.03964168    -0.09310
C322        C  0.56675881  0.04429080  0.01272098     0.06880
C323        C  0.59941816  0.09394933  0.98960828    -0.03080
C324        C  0.65676002  0.12538806  0.99786241    -0.07530
C325        C  0.68396069  0.10608104  0.02599374     0.06000
C326        C  0.65214741  0.05194783  0.04279009    -0.02550
Br327      Br  0.68388987  0.01055784  0.06846430    -0.02250
H328        H  0.57224689  0.98986980  0.06009634     0.09910
H329        H  0.67948106  0.16566211  0.98291570     0.07930
Br330      Br  0.56959086  0.12117324  0.94566082    -0.02680
C331        C  0.47067661  0.09965146  0.09066443    -0.09310
C332        C  0.44804274  0.12439776  0.06307038     0.06880
C333        C  0.44057766  0.10943110  0.01875790    -0.03080
C334        C  0.45966892  0.07509595  0.00303242    -0.07530
C335        C  0.48084624  0.04927136  0.03070903     0.06000
C336        C  0.48536704  0.06164570  0.07522130    -0.02550
Br337      Br  0.51208149  0.02841951  0.11676116    -0.02250
H338        H  0.47778261  0.11023101  0.12468946     0.09910
H339        H  0.45868217  0.06987979  0.96855805     0.07930
Br340      Br  0.40054572  0.12959954  0.97793802    -0.02680
C341        C  0.90916375  0.52177870  0.50447261    -0.09310
C342        C  0.95477660  0.54029861  0.47767510     0.06880
C343        C  0.96640579  0.58567085  0.45042314    -0.03080
C344        C  0.93564761  0.61242548  0.45279474    -0.07530
C345        C  0.88314066  0.58648020  0.47139929     0.06000
C346        C  0.87216799  0.54220150  0.50040015    -0.02550
Br347      Br  0.80940562  0.50574949  0.53610859    -0.02250
H348        H  0.90008824  0.48869633  0.52713988     0.09910
H349        H  0.94948058  0.64994195  0.43408968     0.07930
Br350      Br  0.01140867  0.60507004  0.40076198    -0.02680
C351        C  0.89843199  0.37965442  0.40688021    -0.09310
C352        C  0.86495111  0.33836197  0.43675539     0.06880
C353        C  0.87640035  0.35305637  0.48123239    -0.03080
C354        C  0.91663622  0.40764134  0.49387759    -0.07530
C355        C  0.95045644  0.44795380  0.46370882     0.06000
C356        C  0.94192555  0.43189047  0.41992516    -0.02550
Br357      Br  0.99000105  0.47805631  0.37601897    -0.02250
H358        H  0.89147802  0.37178701  0.37251006     0.09910
H359        H  0.92169274  0.41840056  0.52783698     0.07930
Br360      Br  0.84255034  0.30063981  0.52697212    -0.02680
C361        C  0.46241240  0.40101177  0.50175881    -0.09310
C362        C  0.48477496  0.44045749  0.46843477     0.06880
C363        C  0.48599584  0.42108425  0.42663330    -0.03080
C364        C  0.46397129  0.36413248  0.41865827    -0.07530
C365        C  0.44089815  0.32473254  0.45176575     0.06000
C366        C  0.44029484  0.34387519  0.49370850    -0.02550
Br367      Br  0.40765577  0.29354067  0.54077508    -0.02250
H368        H  0.46318387  0.41472886  0.53445708     0.09910
H369        H  0.46494140  0.35047838  0.38623799     0.07930
Br370      Br  0.51704958  0.47050197  0.37879183    -0.02680
C371        C  0.60354851  0.50372782  0.49007492    -0.09310
C372        C  0.57598827  0.53148512  0.47453297     0.06880
C373        C  0.60751088  0.58193484  0.45223837    -0.03080
C374        C  0.66480957  0.60459343  0.44890125    -0.07530
C375        C  0.69155348  0.57482156  0.46185332     0.06000
C376        C  0.65905877  0.52275726  0.48162950    -0.02550
Br377      Br  0.68284052  0.46959540  0.48982237    -0.02250
H378        H  0.58053134  0.46411670  0.50607237     0.09910
H379        H  0.68779475  0.64384508  0.43238639     0.07930
Br380      Br  0.57474894  0.61734529  0.41914047    -0.02680
C381        C  0.91753864  0.48952279  0.05921264    -0.09310
C382        C  0.93384673  0.49838897  0.01604180     0.06880
C383        C  0.91230676  0.52410338  0.98823470    -0.03080
C384        C  0.87778025  0.54270571  0.00454140    -0.07530
C385        C  0.86182881  0.53380288  0.04794804     0.06000
C386        C  0.88081662  0.50497003  0.07480386    -0.02550
Br387      Br  0.85301119  0.47887785  0.13151032    -0.02250
H388        H  0.93102646  0.46715192  0.08050659     0.09910
H389        H  0.86254488  0.56332885  0.98303218     0.07930
Br390      Br  0.92371141  0.52965180  0.92724464    -0.02680
C391        C  0.87688461  0.37802805  0.99188342    -0.09310
C392        C  0.93194740  0.40762980  0.00752665     0.06880
C393        C  0.95258284  0.37854782  0.03185393    -0.03080
C394        C  0.92097815  0.32078260  0.03526141    -0.07530
C395        C  0.86449961  0.29138031  0.02247657     0.06000
C396        C  0.84256082  0.32155873  0.00080478    -0.02550
Br397      Br  0.76539049  0.29245621  0.98786114    -0.02250
H398        H  0.85936746  0.39996819  0.97463329     0.09910
H399        H  0.93947668  0.29963577  0.05224961     0.07930
Br400      Br  0.01740773  0.41517703  0.06878091    -0.02680
C401        C  0.51399382  0.39166866  0.01369844    -0.09310
C402        C  0.48437207  0.41879448  0.02331735     0.06880
C403        C  0.43734424  0.38998552  0.04901533    -0.03080
C404        C  0.42139613  0.33604777  0.06353621    -0.07530
C405        C  0.45379615  0.31101675  0.05667079     0.06000
C406        C  0.50123103  0.34039765  0.03154364    -0.02550
Br407      Br  0.55656461  0.31938422  0.02564052    -0.02250
H408        H  0.55045223  0.41258693  0.99447101     0.09910
H409        H  0.38476325  0.31479001  0.08255705     0.07930
Br410      Br  0.39708336  0.42325123  0.07082805    -0.02680
C411        C  0.61238381  0.52629303  0.99324314    -0.09310
C412        C  0.57190039  0.51117760  0.02471254     0.06880
C413        C  0.58849882  0.51377636  0.06842520    -0.03080
C414        C  0.64274462  0.52828899  0.07973207    -0.07530
C415        C  0.68386674  0.54428335  0.04867914     0.06000
C416        C  0.66800706  0.54432092  0.00480021    -0.02550
Br417      Br  0.71990496  0.56987667  0.95920670    -0.02250
H418        H  0.60043640  0.52156880  0.95939227     0.09910
H419        H  0.65237346  0.52619305  0.11357981     0.07930
Br420      Br  0.53831079  0.49580360  0.11465975    -0.02680
C421        C  0.06814834  0.40087925  0.94298839    -0.09310
C422        C  0.12397401  0.42950627  0.95798557     0.06880
C423        C  0.14024786  0.47679335  0.98476583    -0.03080
C424        C  0.10287279  0.49487388  0.99335638    -0.07530
C425        C  0.04896988  0.46886379  0.97536085     0.06000
C426        C  0.03203945  0.42133843  0.94926008    -0.02550
Br427      Br  0.96441442  0.38720182  0.91531518    -0.02250
H428        H  0.05281171  0.36354875  0.92368807     0.09910
H429        H  0.11676807  0.53124457  0.01366648     0.07930
Br430      Br  0.21245715  0.52315914  0.00958967    -0.02680
C431        C  0.39782915  0.51010470  0.97735824    -0.09310
C432        C  0.42448309  0.47818022  0.97707450     0.06880
C433        C  0.39242128  0.42353930  0.95980854    -0.03080
C434        C  0.33485364  0.39997303  0.95273207    -0.07530
C435        C  0.30878391  0.43201033  0.95600894     0.06000
C436        C  0.34270093  0.48884273  0.96483044    -0.02550
Br437      Br  0.32090059  0.54256645  0.95059017    -0.02250
H438        H  0.41972041  0.55362496  0.98449575     0.09910
H439        H  0.31118498  0.35772241  0.94072391     0.07930
Br440      Br  0.42466382  0.38453119  0.93386085    -0.02680
C441        C  0.05144399  0.45590668  0.52399517    -0.09310
C442        C  0.07177031  0.50152131  0.49592306     0.06880
C443        C  0.12595685  0.52203930  0.48085688    -0.03080
C444        C  0.16031768  0.50290602  0.49855186    -0.07530
C445        C  0.14099105  0.46002850  0.52918201     0.06000
C446        C  0.08407053  0.43345868  0.53868040    -0.02550
Br447      Br  0.04669655  0.36460854  0.56973370    -0.02250
H448        H  0.01071648  0.43873373  0.53649701     0.09910
H449        H  0.20270507  0.52270812  0.48868825     0.07930
Br450      Br  0.15509444  0.57332488  0.43407242    -0.02680
C451        C  0.32651567  0.44706965  0.49536585    -0.09310
C452        C  0.31740849  0.44448605  0.54028172     0.06880
C453        C  0.36401511  0.45821957  0.56856224    -0.03080
C454        C  0.41687868  0.48050921  0.55182037    -0.07530
C455        C  0.42636009  0.49076777  0.50782050     0.06000
C456        C  0.38002224  0.46875821  0.47911490    -0.02550
Br457      Br  0.38758239  0.46933693  0.41769680    -0.02250
H458        H  0.29209960  0.43327392  0.47251060     0.09910
H459        H  0.45201162  0.49374033  0.57399111     0.07930
Br460      Br  0.36436169  0.45641908  0.63101881    -0.02680
C461        C  0.51677925  0.90001199  0.01457901    -0.09310
C462        C  0.49605946  0.92557161  0.98611307     0.06880
C463        C  0.49359852  0.91406515  0.94170530    -0.03080
C464        C  0.50988807  0.87712807  0.92703098    -0.07530
C465        C  0.53341858  0.85362223  0.95517845     0.06000
C466        C  0.53823651  0.86734330  0.99960147    -0.02550
Br467      Br  0.57779878  0.84812734  0.04154351    -0.02250
H468        H  0.51633687  0.90503393  0.04902579     0.09910
H469        H  0.50399683  0.86705258  0.89292551     0.07930
Br470      Br  0.46861670  0.94784354  0.89917085    -0.02680
C471        C  0.54935819  0.58874845  0.94790871    -0.09310
C472        C  0.51852013  0.56781749  0.98510233     0.06880
C473        C  0.51409350  0.60561224  0.01248901    -0.03080
C474        C  0.52782322  0.65864977  0.99711900    -0.07530
C475        C  0.55308355  0.67791487  0.95683238     0.06000
C476        C  0.57158123  0.64461928  0.93652209    -0.02550
Br477      Br  0.63396357  0.67371488  0.89941703    -0.02250
H478        H  0.55660582  0.56179199  0.92760937     0.09910
H479        H  0.51685823  0.68320804  0.01675420     0.07930
Br480      Br  0.48006103  0.58321381  0.06755378    -0.02680
C481        C  0.38228138  0.94834616  0.97226857    -0.09310
C482        C  0.40912548  0.92924107  0.00060981     0.06880
C483        C  0.37620256  0.87632516  0.01941762    -0.03080
C484        C  0.32136783  0.84146834  0.00460777    -0.07730
C485        C  0.29610149  0.86004832  0.97393597     0.06000
C486        C  0.32594125  0.91674106  0.96215637    -0.02550
Br487      Br  0.29273363  0.95493522  0.93326271    -0.02250
H488        H  0.40523146  0.98614445  0.95488412     0.09910
H489        H  0.29945522  0.79931099  0.01638205     0.07930
Br490      Br  0.40259122  0.84928268  0.06606602    -0.02680
C491        C  0.10491035  0.63266202  0.92572383    -0.09310
C492        C  0.11670330  0.67319760  0.95743462     0.06880
C493        C  0.09170385  0.65527684  0.99796109    -0.03080
C494        C  0.05703527  0.59795895  0.00587147    -0.07530
C495        C  0.04499745  0.55787532  0.97337246     0.06000
C496        C  0.06876020  0.57661509  0.93267338    -0.02550
Br497      Br  0.05284964  0.52852964  0.88375587    -0.02250
H498        H  0.12384870  0.64464466  0.89452033     0.09910
H499        H  0.04025914  0.58473553  0.03763684     0.07930
Br500      Br  0.10139312  0.70670065  0.04277560    -0.02680
C501        C  0.34412973  0.86383593  0.52303518    -0.09310
C502        C  0.31887980  0.88583787  0.54901834     0.06880
C503        C  0.35050064  0.94380079  0.55810725    -0.03080
C504        C  0.40597278  0.97542761  0.54559266    -0.07530
C505        C  0.43111319  0.95318958  0.51988841     0.06000
C506        C  0.39790041  0.89652431  0.50765699    -0.02550
Br507      Br  0.42113626  0.85996146  0.46833794    -0.02250
H508        H  0.32299912  0.82012822  0.51513756     0.09910
H509        H  0.42955895  0.01796340  0.55655172     0.07930
Br510      Br  0.32017333  0.98505921  0.58348322    -0.02680
C511        C  0.10021178  0.63761846  0.48041232    -0.09310
C512        C  0.07107039  0.59187515  0.50763895     0.06880
C513        C  0.07335327  0.60245995  0.55222405    -0.03080
C514        C  0.10511536  0.65689493  0.56836978    -0.07530
C515        C  0.13422115  0.70304850  0.54099168     0.06000
C516        C  0.12898650  0.69243446  0.49602624    -0.02550
Br517      Br  0.15450743  0.75003945  0.45332404    -0.02250
H518        H  0.10129075  0.63123067  0.44644192     0.09910
H519        H  0.10710478  0.66264962  0.60282600     0.07930
Br520      Br  0.03438897  0.54386836  0.59274278    -0.02680
C521        C  0.54888102  0.94353821  0.48653920    -0.09310
C522        C  0.52791352  0.96283817  0.51885539     0.06880
C523        C  0.53598692  0.95220941  0.56214656    -0.03080
C524        C  0.55949026  0.91929430  0.57226928    -0.07530
C525        C  0.57546859  0.89461337  0.54037871     0.06000
C526        C  0.57167042  0.90911681  0.49681679    -0.02550
Br527      Br  0.59897081  0.88565321  0.45026667    -0.02250
H528        H  0.54468956  0.95264272  0.45300316     0.09910
H529        H  0.56452480  0.91268149  0.60595728     0.07930
Br530      Br  0.51699175  0.98302292  0.60947921    -0.02680
C531        C  0.56239654  0.61317142  0.53367594    -0.09310
C532        C  0.51312297  0.58827260  0.50831883     0.06880
C533        C  0.49031767  0.62271567  0.49734113    -0.03080
C534        C  0.51480815  0.67786752  0.51267179    -0.07530
C535        C  0.56414686  0.70281838  0.53778568     0.06000
C536        C  0.58909303  0.66967702  0.54623610    -0.02550
Br537      Br  0.66256173  0.69946693  0.57042116    -0.02250
H538        H  0.58129676  0.58887004  0.54334817     0.09910
H539        H  0.49376120  0.70079962  0.50538867     0.07930
Br540      Br  0.42601049  0.59921969  0.46085613    -0.02680
C541        C  0.49099740  0.68281868  0.65073496    -0.09310
C542        C  0.49895468  0.73184946  0.66997880     0.06880
C543        C  0.48609149  0.76706548  0.64491778    -0.03080
C544        C  0.45958923  0.74854665  0.60468154    -0.07530
C545        C  0.43189521  0.69112779  0.59665111     0.06000
C546        C  0.45906922  0.66355331  0.61267634    -0.02550
Br547      Br  0.43535458  0.59057697  0.59487737    -0.02250
H548        H  0.50581916  0.65767524  0.66663433     0.09910
H549        H  0.44721892  0.77468366  0.58716314     0.07930
Br550      Br  0.49788275  0.83749295  0.66455887    -0.02680
C551        C  0.26488846  0.61764870  0.72674754    -0.09310
C552        C  0.32008343  0.63331427  0.71915281     0.06880
C553        C  0.34761809  0.61506347  0.74773874    -0.03080
C554        C  0.31703704  0.57365169  0.77713316    -0.07530
C555        C  0.25937369  0.54616222  0.77336415     0.06000
C556        C  0.23435381  0.57466954  0.75498925    -0.02550
Br557      Br  0.15713145  0.54939103  0.75961497    -0.02250
H558        H  0.24375218  0.63399797  0.70712745     0.09910
H559        H  0.33722879  0.55489112  0.79526740     0.07930
Br560      Br  0.42402013  0.63886396  0.74554707    -0.02680
C561        C  0.24565151  0.71418550  0.62552189    -0.09310
C562        C  0.30150164  0.74858830  0.61688393     0.06880
C563        C  0.32801656  0.80164765  0.63545526    -0.03080
C564        C  0.30934454  0.80977537  0.67437486    -0.07530
C565        C  0.26081543  0.76665252  0.69197939     0.06000
C566        C  0.22649500  0.71960209  0.66535911    -0.02550
Br567      Br  0.15640337  0.65846370  0.68188622    -0.02250
H568        H  0.22223652  0.67530004  0.60798266     0.09910
H569        H  0.33388799  0.84884041  0.69137833     0.07930
Br570      Br  0.39865526  0.85622008  0.61708358    -0.02680
C571        C  0.08809590  0.20618976  0.68302723    -0.09310
C572        C  0.12516949  0.22593454  0.71851359     0.06880
C573        C  0.13677381  0.18999179  0.74289908    -0.03080
C574        C  0.10726957  0.13361799  0.73373014    -0.07530
C575        C  0.06630632  0.11311870  0.70078350     0.06000
C576        C  0.05880693  0.14978103  0.67375304    -0.02550
Br577      Br  0.00654346  0.12415544  0.62601457    -0.02250
H578        H  0.08055017  0.23446202  0.66352324     0.09910
H579        H  0.11250592  0.10534073  0.75509045     0.07930
Br580      Br  0.18588962  0.21424924  0.79278661    -0.02680
C581        C  0.79040974  0.96783095  0.73459714    -0.09310
C582        C  0.77177221  0.93296310  0.77054744     0.06880
C583        C  0.80912943  0.92753598  0.79837867    -0.03080
C584        C  0.86397140  0.95193593  0.78699366    -0.07530
C585        C  0.88072896  0.97914351  0.74711113     0.06000
C586        C  0.84421965  0.98932980  0.72165410    -0.02550
Br587      Br  0.86094248  0.02167842  0.66503539    -0.02250
H588        H  0.76120234  0.97130830  0.71281125     0.09910
H589        H  0.89245239  0.94563978  0.80746918     0.07930
Br590      Br  0.78561124  0.88245799  0.84929732    -0.02680
C591        C  0.06233243  0.94696323  0.77108456    -0.09310
C592        C  0.02265380  0.92691052  0.73725077     0.06880
C593        C  0.00706275  0.87615861  0.71712154    -0.03080
C594        C  0.03503206  0.84823791  0.72857319    -0.07530
C595        C  0.07869017  0.87120447  0.75940545     0.06000
C596        C  0.09062207  0.91941172  0.78233747    -0.02550
Br597      Br  0.14562579  0.94991545  0.82820959    -0.02250
H598        H  0.07289240  0.98545802  0.78744195     0.09910
H599        H  0.02562256  0.81096391  0.71085739     0.07930
Br600      Br  0.95246948  0.84690030  0.67103302    -0.02680
loop_ 
_geom_bond_atom_site_label_1 
_geom_bond_atom_site_label_2 
_geom_bond_distance 
_geom_bond_site_symmetry_2 
_ccdc_geom_bond_type 
C1            C2   1.389   1_455  A
C1            C6   1.393   1_565  A
C1          C592   1.447       .  S
C2            C3   1.397       .  A
C2            H7   1.084       .  S
C3            C4   1.392   1_565  A
C3          C585   1.460       .  S
C4            C5   1.396   1_655  A
C4            H8   1.085       .  S
C5            C6   1.391       .  A
C5          C575   1.452       .  S
C6            H9   1.085       .  S
O10          V18   1.899       .  S
O10          C20   1.265       .  A
O11          V18   1.909       .  S
O11          C21   1.269       .  A
O12          V18   1.869       .  S
O12          C22   1.254       .  A
O13          V18   1.871       .  S
O13          C23   1.257       .  A
O14          V19   1.883       .  S
O14          C23   1.263       .  A
O15          V19   1.880       .  S
O15          C22   1.261       .  A
O16          V19   1.913       .  S
O16          C21   1.267       .  A
O17          V19   1.903       .  S
O17          C20   1.266       .  A
V18          V19   2.088       .  T
C20          C81   1.482       .  S
C21          C72   1.496       .  S
C22         C565   1.470       .  S
C23         C595   1.448       .  S
C24          C25   1.403       .  A
C24          C29   1.399       .  A
C24         C562   1.460       .  S
C25          C26   1.377       .  A
C25          H30   1.080       .  S
C26          C27   1.399       .  A
C26         C552   1.467       .  S
C27          C28   1.420       .  A
C27          H31   1.082       .  S
C28          C29   1.411       .  A
C28         C545   1.492       .  S
C29          H32   1.083       .  S
O33          V41   1.884       .  S
O33          C43   1.262       .  A
O34          V41   1.897       .  S
O34          C44   1.265       .  A
O35          V41   1.871       .  S
O35          C45   1.262       .  A
O36          V41   1.871       .  S
O36          C46   1.256       .  A
O37          V42   1.880       .  S
O37          C46   1.261       .  A
O38          V42   1.884       .  S
O38          C45   1.260       .  A
O39          V42   1.908       .  S
O39          C44   1.266       .  A
O40          V42   1.899       .  S
O40          C43   1.265       .  A
V41          V42   2.089       .  T
C43         C110   1.476       .  S
C44          C99   1.482       .  S
C45         C555   1.461       .  S
C46         C572   1.441       .  S
O47          V55   1.889       .  S
O47          C57   1.263       .  A
O48          V55   1.902       .  S
O48          C58   1.266       .  A
O49          V55   1.866       .  S
O49          C59   1.255       .  A
O50          V55   1.871       .  S
O50          C60   1.257       .  A
O51          V56   1.883       .  S
O51          C60   1.263       .  A
O52          V56   1.880       .  S
O52          C59   1.259       .  A
O53          V56   1.913       .  S
O53          C58   1.268       .  A
O54          V56   1.907       .  S
O54          C57   1.267       .  A
V55          V56   2.086       .  T
C57          C90   1.479       .  S
C58          C63   1.488       .  S
C59         C542   1.466       .  S
C60         C582   1.442       .  S
C61          C62   1.409       .  A
C61          C66   1.426       .  A
C61         C525   1.524       .  S
C62          C63   1.399       .  A
C62          H67   1.083       .  S
C63          C64   1.407       .  A
C64          C65   1.414       .  A
C64          H68   1.081       .  S
C65          C66   1.432       .  A
C65         C535   1.531       .  S
C66          H69   1.079       .  S
C70          C71   1.406       .  A
C70          C75   1.417       .  A
C70         C515   1.514       .  S
C71          C72   1.403       .  A
C71          H76   1.082       .  S
C72          C73   1.416       .  A
C73          C74   1.419       .  A
C73          H77   1.080       .  S
C74          C75   1.422       .  A
C74         C502   1.533       .  S
C75          H78   1.075       .  S
C79          C80   1.407       .  A
C79          C84   1.418       .  A
C79         C492   1.502       .  S
C80          C81   1.395       .  A
C80          H85   1.084       .  S
C81          C82   1.397       .  A
C82          C83   1.410       .  A
C82          H86   1.081       .  S
C83          C84   1.422       .  A
C83         C485   1.508       .  S
C84          H87   1.080   1_556  S
C88          C89   1.404       .  A
C88          C93   1.421       .  A
C88         C465   1.512       .  S
C89          C90   1.396       .  A
C89          H94   1.083       .  S
C90          C91   1.396       .  A
C91          C92   1.411       .  A
C91          H95   1.077       .  S
C92          C93   1.427       .  A
C92         C475   1.524       .  S
C93          H96   1.072       .  S
C97          C98   1.408       .  A
C97         C102   1.426       .  A
C97         C445   1.512       .  S
C98          C99   1.397       .  A
C98         H103   1.083       .  S
C99         C100   1.400       .  A
C100        C101   1.404       .  A
C100        H104   1.078       .  S
C101        C102   1.427       .  A
C101        C452   1.523       .  S
C102        H105   1.080       .  S
C106        C107   1.424       .  A
C106        C111   1.413       .  A
C106        C422   1.524       .  S
C107        C108   1.422       .  A
C107        H112   1.077       .  S
C108        C109   1.396       .  A
C108        C435   1.499       .  S
C109        C110   1.397       .  A
C109        H113   1.084       .  S
C110        C111   1.401       .  A
C111        H114   1.082       .  S
C115        C116   1.388   1_556  D
C115        C432   1.537       .  S
C115        C472   1.508       .  S
C116        C402   1.512       .  S
C116        C412   1.513       .  S
C117        C118   1.382   1_654  D
C117        C382   1.506       .  S
C117        C392   1.503       .  S
C118        C425   1.515       .  S
C118        C495   1.507       .  S
C119        C120   1.391       .  D
C119        C362   1.517       .  S
C119        C372   1.516       .  S
C120        C455   1.511       .  S
C120        C532   1.538       .  S
C121        C122   1.391   1_455  D
C121        C442   1.518       .  S
C121        C512   1.513       .  S
C122        C342   1.514       .  S
C122        C355   1.518       .  S
C123        C124   1.391   1_545  D
C123        C322   1.515       .  S
C123        C335   1.512       .  S
C124        C462   1.510   1_554  S
C124        C482   1.514       .  S
C125        C126   1.387   1_565  D
C125        C505   1.536       .  S
C125        C522   1.512       .  S
C126        C305   1.515       .  S
C126        C315   1.499       .  S
O127        V135   1.892       .  S
O127        C137   1.263       .  A
O128        V135   1.875       .  S
O128        C138   1.260       .  A
O129        V135   1.883       .  S
O129        C139   1.263       .  A
O130        V135   1.887       .  S
O130        C140   1.258       .  A
O131        V136   1.878       .  S
O131        C140   1.261       .  A
O132        V136   1.885       .  S
O132        C139   1.259       .  A
O133        V136   1.903       .  S
O133        C138   1.266       .  A
O134        V136   1.914       .  S
O134        C137   1.269       .  A
V135        V136   2.089       .  T
C137        C216   1.485       .  S
C138        C182   1.472       .  S
C139        C292   1.460       .  S
C140        C282   1.442       .  S
C141        C142   1.382       .  A
C141        C146   1.412       .  A
C141        C295   1.480       .  S
C142        C143   1.402       .  A
C142        H147   1.083       .  S
C143        C144   1.392       .  A
C143        C275   1.468       .  S
C144        C145   1.419       .  A
C144        H148   1.081       .  S
C145        C146   1.407       .  A
C145        C262   1.516       .  S
C146        H149   1.077       .  S
O150        V158   1.889       .  S
O150        C160   1.264       .  A
O151        V158   1.899       .  S
O151        C161   1.264       .  A
O152        V158   1.881       .  S
O152        C162   1.264       .  A
O153        V158   1.888       .  S
O153        C163   1.259       .  A
O154        V159   1.888       .  S
O154        C163   1.263       .  A
O155        V159   1.889       .  S
O155        C162   1.259       .  A
O156        V159   1.908       .  S
O156        C161   1.267       .  A
O157        V159   1.908       .  S
O157        C160   1.267       .  A
V158        V159   2.088       .  T
C160        C227   1.483       .  S
C161        C200   1.484       .  S
C162        C272   1.461       .  S
C163        C255   1.455       .  S
O164        V172   1.877       .  S
O164        C174   1.258       .  A
O165        V172   1.882       .  S
O165        C175   1.262       .  A
O166        V172   1.910       .  S
O166        C176   1.269       .  A
O167        V172   1.905       .  S
O167        C177   1.263       .  A
O168        V173   1.867       .  S
O168        C177   1.258       .  A
O169        V173   1.878       .  S
O169        C176   1.256       .  A
O170        V173   1.919       .  S
O170        C175   1.268       .  A
O171        V173   1.913       .  S
O171        C174   1.270       .  A
V172        V173   2.088       .  T
C174        C209   1.477       .  S
C175        C191   1.477       .  S
C176        C265   1.460       .  S
C177        C242   1.449       .  S
C178        C179   1.418       .  A
C178        C183   1.404       .  A
C178        C395   1.506       .  S
C179        C180   1.420       .  A
C179        H184   1.080   1_554  S
C180        C181   1.408       .  A
C180        C325   1.506       .  S
C181        C182   1.393       .  A
C181        H185   1.080       .  S
C182        C183   1.393       .  A
C183        H186   1.081       .  S
C187        C188   1.422       .  A
C187        C192   1.409       .  A
C187        C385   1.499       .  S
C188        C189   1.421       .  A
C188        H193   1.081       .  S
C189        C190   1.406       .  A
C189        C415   1.511       .  S
C190        C191   1.397       .  A
C190        H194   1.084       .  S
C191        C192   1.394       .  A
C192        H195   1.083       .  S
C196        C197   1.415       .  A
C196        C201   1.409       .  A
C196        C332   1.511       .  S
C197        C198   1.415       .  A
C197        H202   1.075       .  S
C198        C199   1.408       .  A
C198        C405   1.507       .  S
C199        C200   1.402       .  A
C199        H203   1.083       .  S
C200        C201   1.405       .  A
C201        H204   1.083       .  S
C205        C206   1.428       .  A
C205        C210   1.418       .  A
C205        C345   1.531       .  S
C206        C207   1.427       .  A
C206        H211   1.075       .  S
C207        C208   1.403       .  A
C207        C375   1.510       .  S
C208        C209   1.394       .  A
C208        H212   1.083       .  S
C209        C210   1.390       .  A
C210        H213   1.080       .  S
C214        C215   1.413       .  A
C214        C219   1.428       .  A
C214        C352   1.527       .  S
C215        C216   1.401       .  A
C215        H220   1.081       .  S
C216        C217   1.395       .  A
C217        C218   1.407       .  A
C217        H221   1.082       .  S
C218        C219   1.426       .  A
C218        C302   1.510       .  S
C219        H222   1.080       .  S
C223        C224   1.422       .  A
C223        C228   1.412       .  A
C223        C312   1.520       .  S
C224        C225   1.417       .  A
C224        H229   1.079       .  S
C225        C226   1.406       .  A
C225        C365   1.500       .  S
C226        C227   1.403       .  A
C226        H230   1.084       .  S
C227        C228   1.402       .  A
C228        H231   1.081       .  S
C232        C233   1.389   1_655  A
C232        C237   1.395   1_545  A
C232        C285   1.450       .  S
C233        C234   1.399   1_545  A
C233        H238   1.085       .  S
C234        C235   1.400   1_455  A
C234        C252   1.464   1_565  S
C235        C236   1.404       .  A
C235        H239   1.084       .  S
C236        C237   1.391       .  A
C236        C245   1.458       .  S
C237        H240   1.085       .  S
C241        C242   1.400       .  A
C241        C246   1.395       .  A
C241        H248   1.084       .  S
C242        C243   1.407       .  A
C243        C244   1.391       .  A
C243       Br250   1.921       .  S
C244        C245   1.397       .  A
C244        H249   1.083       .  S
C245        C246   1.404       .  A
C246       Br247   1.917       .  S
C251        C252   1.403       .  A
C251        C256   1.391       .  A
C251        H258   1.084       .  S
C252        C253   1.408   1_545  A
C253        C254   1.395   1_565  A
C253       Br260   1.920       .  S
C254        C255   1.400       .  A
C254        H259   1.084       .  S
C255        C256   1.404       .  A
C256       Br257   1.920       .  S
C261        C262   1.399       .  A
C261        C266   1.400       .  A
C261        H268   1.082       .  S
C262        C263   1.414       .  A
C263        C264   1.405       .  A
C263       Br270   1.908       .  S
C264        C265   1.406       .  A
C264        H269   1.082       .  S
C265        C266   1.417       .  A
C266       Br267   1.905       .  S
C271        C272   1.406       .  A
C271        C276   1.389       .  A
C271        H278   1.084       .  S
C272        C273   1.410       .  A
C273        C274   1.399       .  A
C273       Br280   1.918       .  S
C274        C275   1.406       .  A
C274        H279   1.083       .  S
C275        C276   1.400       .  A
C276       Br277   1.916       .  S
C281        C282   1.399       .  A
C281        C286   1.386       .  A
C281        H288   1.084       .  S
C282        C283   1.401       .  A
C283        C284   1.395       .  A
C283       Br290   1.917       .  S
C284        C285   1.401       .  A
C284        H289   1.083       .  S
C285        C286   1.402       .  A
C286       Br287   1.922       .  S
C291        C292   1.401       .  A
C291        C296   1.394       .  A
C291        H298   1.083       .  S
C292        C293   1.414       .  A
C293        C294   1.397       .  A
C293       Br300   1.921       .  S
C294        C295   1.403       .  A
C294        H299   1.083       .  S
C295        C296   1.407       .  A
C296       Br297   1.914       .  S
C301        C302   1.409       .  A
C301        C306   1.415       .  A
C301        H308   1.083       .  S
C302        C303   1.418       .  A
C303        C304   1.400       .  A
C303       Br310   1.927       .  S
C304        C305   1.405       .  A
C304        H309   1.077       .  S
C305        C306   1.417       .  A
C306       Br307   1.909       .  S
C311        C312   1.419       .  A
C311        C316   1.400       .  A
C311        H318   1.079       .  S
C312        C313   1.421       .  A
C313        C314   1.408       .  A
C313       Br320   1.919       .  S
C314        C315   1.405       .  A
C314        H319   1.083       .  S
C315        C316   1.403       .  A
C316       Br317   1.921   1_545  S
C321        C322   1.402       .  A
C321        C326   1.394       .  A
C321        H328   1.071   1_545  S
C322        C323   1.418   1_554  A
C323        C324   1.408       .  A
C323       Br330   1.914       .  S
C324        C325   1.409   1_556  A
C324        H329   1.080       .  S
C325        C326   1.414       .  A
C326       Br327   1.925       .  S
C331        C332   1.413       .  A
C331        C336   1.404       .  A
C331        H338   1.082       .  S
C332        C333   1.416       .  A
C333        C334   1.404       .  A
C333       Br340   1.922   1_554  S
C334        C335   1.408       .  A
C334        H339   1.076   1_554  S
C335        C336   1.410       .  A
C336       Br337   1.917       .  S
C341        C342   1.408       .  A
C341        C346   1.411       .  A
C341        H348   1.080       .  S
C342        C343   1.412       .  A
C343        C344   1.395       .  A
C343       Br350   1.914   1_655  S
C344        C345   1.413       .  A
C344        H349   1.082       .  S
C345        C346   1.425       .  A
C346       Br347   1.911       .  S
C351        C352   1.416       .  A
C351        C356   1.403       .  A
C351        H358   1.080       .  S
C352        C353   1.421       .  A
C353        C354   1.415       .  A
C353       Br360   1.919       .  S
C354        C355   1.412       .  A
C354        H359   1.081       .  S
C355        C356   1.407       .  A
C356       Br357   1.911       .  S
C361        C362   1.410       .  A
C361        C366   1.409       .  A
C361        H368   1.081       .  S
C362        C363   1.415       .  A
C363        C364   1.404       .  A
C363       Br370   1.918       .  S
C364        C365   1.406       .  A
C364        H369   1.083       .  S
C365        C366   1.412       .  A
C366       Br367   1.917       .  S
C371        C372   1.410       .  A
C371        C376   1.401       .  A
C371        H378   1.082       .  S
C372        C373   1.415       .  A
C373        C374   1.407       .  A
C373       Br380   1.920       .  S
C374        C375   1.415       .  A
C374        H379   1.083       .  S
C375        C376   1.413       .  A
C376       Br377   1.913       .  S
C381        C382   1.404       .  A
C381        C386   1.397       .  A
C381        H388   1.084       .  S
C382        C383   1.415   1_554  A
C383        C384   1.412   1_556  A
C383       Br390   1.916       .  S
C384        C385   1.409       .  A
C384        H389   1.083   1_554  S
C385        C386   1.415       .  A
C386       Br387   1.925       .  S
C391        C392   1.408   1_556  A
C391        C396   1.401   1_556  A
C391        H398   1.084       .  S
C392        C393   1.408       .  A
C393        C394   1.398       .  A
C393       Br400   1.920   1_655  S
C394        C395   1.414       .  A
C394        H399   1.083       .  S
C395        C396   1.418       .  A
C396       Br397   1.920   1_554  S
C401        C402   1.411       .  A
C401        C406   1.397       .  A
C401        H408   1.082   1_554  S
C402        C403   1.415       .  A
C403        C404   1.407       .  A
C403       Br410   1.920       .  S
C404        C405   1.414       .  A
C404        H409   1.082       .  S
C405        C406   1.414       .  A
C406       Br407   1.924       .  S
C411        C412   1.412   1_556  A
C411        C416   1.412   1_556  A
C411        H418   1.079       .  S
C412        C413   1.408       .  A
C413        C414   1.396       .  A
C413       Br420   1.918       .  S
C414        C415   1.412       .  A
C414        H419   1.082       .  S
C415        C416   1.416       .  A
C416       Br417   1.918   1_554  S
C421        C422   1.418       .  A
C421        C426   1.405       .  A
C421        H428   1.082       .  S
C422        C423   1.423       .  A
C423        C424   1.402       .  A
C423       Br430   1.913   1_556  S
C424        C425   1.406       .  A
C424        H429   1.084   1_556  S
C425        C426   1.413       .  A
C426       Br427   1.921   1_455  S
C431        C432   1.417       .  A
C431        C436   1.392       .  A
C431        H438   1.070       .  S
C432        C433   1.422       .  A
C433        C434   1.414       .  A
C433       Br440   1.918       .  S
C434        C435   1.412       .  A
C434        H439   1.083       .  S
C435        C436   1.402       .  A
C436       Br437   1.919       .  S
C441        C442   1.404       .  A
C441        C446   1.403       .  A
C441        H448   1.075       .  S
C442        C443   1.420       .  A
C443        C444   1.408       .  A
C443       Br450   1.913       .  S
C444        C445   1.405       .  A
C444        H449   1.082       .  S
C445        C446   1.421       .  A
C446       Br447   1.924       .  S
C451        C452   1.416       .  A
C451        C456   1.413       .  A
C451        H458   1.082       .  S
C452        C453   1.433       .  A
C453        C454   1.402       .  A
C453       Br460   1.933       .  S
C454        C455   1.394       .  A
C454        H459   1.084       .  S
C455        C456   1.412       .  A
C456       Br457   1.918       .  S
C461        C462   1.409   1_554  A
C461        C466   1.405   1_554  A
C461        H468   1.078       .  S
C462        C463   1.406       .  A
C463        C464   1.400       .  A
C463       Br470   1.918       .  S
C464        C465   1.416       .  A
C464        H469   1.081       .  S
C465        C466   1.415       .  A
C466       Br467   1.920   1_556  S
C471        C472   1.398       .  A
C471        C476   1.400       .  A
C471        H478   1.081       .  S
C472        C473   1.412   1_556  A
C473        C474   1.407   1_554  A
C473       Br480   1.919       .  S
C474        C475   1.415       .  A
C474        H479   1.077   1_556  S
C475        C476   1.426       .  A
C476       Br477   1.927       .  S
C481        C482   1.402   1_556  A
C481        C486   1.395       .  A
C481        H488   1.068       .  S
C482        C483   1.418       .  A
C483        C484   1.409       .  A
C483       Br490   1.914       .  S
C484        C485   1.408   1_554  A
C484        H489   1.081       .  S
C485        C486   1.416       .  A
C486       Br487   1.926       .  S
C491        C492   1.405       .  A
C491        C496   1.388       .  A
C491        H498   1.083       .  S
C492        C493   1.415       .  A
C493        C494   1.415   1_556  A
C493       Br500   1.917   1_556  S
C494        C495   1.412   1_554  A
C494        H499   1.082       .  S
C495        C496   1.411       .  A
C496       Br497   1.920       .  S
C501        C502   1.414       .  A
C501        C506   1.409       .  A
C501        H508   1.079       .  S
C502        C503   1.424       .  A
C503        C504   1.414       .  A
C503       Br510   1.921       .  S
C504        C505   1.411       .  A
C504        H509   1.079   1_565  S
C505        C506   1.420       .  A
C506       Br507   1.917       .  S
C511        C512   1.405       .  A
C511        C516   1.403       .  A
C511        H518   1.072       .  S
C512        C513   1.407       .  A
C513        C514   1.405       .  A
C513       Br520   1.918       .  S
C514        C515   1.415       .  A
C514        H519   1.076       .  S
C515        C516   1.414       .  A
C516       Br517   1.921       .  S
C521        C522   1.413       .  A
C521        C526   1.420       .  A
C521        H528   1.083       .  S
C522        C523   1.405       .  A
C523        C524   1.397       .  A
C523       Br530   1.922       .  S
C524        C525   1.412       .  A
C524        H529   1.074       .  S
C525        C526   1.419       .  A
C526       Br527   1.916       .  S
C531        C532   1.410       .  A
C531        C536   1.414       .  A
C531        H538   1.082       .  S
C532        C533   1.426       .  A
C533        C534   1.411       .  A
C533       Br540   1.913       .  S
C534        C535   1.407       .  A
C534        H539   1.081       .  S
C535        C536   1.426       .  A
C536       Br537   1.921       .  S
C541        C542   1.403       .  A
C541        C546   1.394       .  A
C541        H548   1.083       .  S
C542        C543   1.418       .  A
C543        C544   1.393       .  A
C543       Br550   1.918       .  S
C544        C545   1.404       .  A
C544        H549   1.084       .  S
C545        C546   1.402       .  A
C546       Br547   1.875       .  S
C551        C552   1.407       .  A
C551        C556   1.387       .  A
C551        H558   1.080       .  S
C552        C553   1.405       .  A
C553        C554   1.388       .  A
C553       Br560   1.900       .  S
C554        C555   1.400       .  A
C554        H559   1.085       .  S
C555        C556   1.402       .  A
C556       Br557   1.920       .  S
C561        C562   1.398       .  A
C561        C566   1.399       .  A
C561        H568   1.084       .  S
C562        C563   1.398       .  A
C563        C564   1.392       .  A
C563       Br570   1.894       .  S
C564        C565   1.408       .  A
C564        H569   1.083       .  S
C565        C566   1.425       .  A
C566       Br567   1.926       .  S
C571        C572   1.399       .  A
C571        C576   1.387       .  A
C571        H578   1.084       .  S
C572        C573   1.403       .  A
C573        C574   1.386       .  A
C573       Br580   1.922       .  S
C574        C575   1.402       .  A
C574        H579   1.084       .  S
C575        C576   1.403       .  A
C576       Br577   1.918       .  S
C581        C582   1.399       .  A
C581        C586   1.385       .  A
C581        H588   1.085       .  S
C582        C583   1.400       .  A
C583        C584   1.389       .  A
C583       Br590   1.919       .  S
C584        C585   1.406       .  A
C584        H589   1.084       .  S
C585        C586   1.408       .  A
C586       Br587   1.922   1_565  S
C591        C592   1.401       .  A
C591        C596   1.386       .  A
C591        H598   1.084       .  S
C592        C593   1.399       .  A
C593        C594   1.388       .  A
C593       Br600   1.918   1_455  S
C594        C595   1.405       .  A
C594        H599   1.084       .  S
C595        C596   1.404       .  A
C596       Br597   1.921       .  S
