geometry optimzed in LAMMPS
_audit_creation_date              2020-12-01 
_audit_creation_method            'lammps2cif' 
_symmetry_space_group_name_H-M    'P1' 
_symmetry_Int_Tables_number       1 
_symmetry_cell_setting            triclinic 
loop_ 
_symmetry_equiv_pos_as_xyz 
  x,y,z 
_cell_length_a                    56.62263281 
_cell_length_b                    56.61303125104474 
_cell_length_c                    30.72535091287786 
_cell_angle_alpha                 89.98629351004526 
_cell_angle_beta                  90.08687602082686 
_cell_angle_gamma                 120.07866050725387 
loop_ 
_atom_site_label 
_atom_site_type_symbol 
_atom_site_fract_x 
_atom_site_fract_y 
_atom_site_fract_z 
_atom_site_charge 
O1          O  0.47829781  0.20900684  0.99629826    -0.72500
O2          O  0.47875408  0.28004564  0.99443638    -0.73500
O3          O  0.47810567  0.24359327  0.92975659    -0.62100
O4          O  0.47891835  0.24519127  0.06038672    -0.70500
O5          O  0.02416621  0.26670047  0.05950670    -0.70100
O6          O  0.02320335  0.26637254  0.92919290    -0.61300
O7          O  0.02388313  0.30255586  0.99444612    -0.73800
O8          O  0.02348846  0.23125115  0.99437383    -0.72600
Cu9        Cu  0.47695602  0.24374484  0.99516432     1.04600
Cu10       Cu  0.02525985  0.26759142  0.99430181     1.04300
C11         C  0.00075940  0.20881470  0.99595413     0.93700
C12         C  0.00129330  0.30256750  0.99482897     0.92800
C13         C  0.00056846  0.25438370  0.90857735     0.85000
C14         C  0.00166339  0.25559599  0.08042391     0.91300
O15         O  0.47542690  0.19754293  0.49591005    -0.72500
O16         O  0.47721774  0.26970303  0.49454960    -0.73500
O17         O  0.47619942  0.23332460  0.42995598    -0.62100
O18         O  0.47601718  0.23403977  0.56000624    -0.70500
O19         O  0.02135217  0.25407297  0.56072348    -0.70100
O20         O  0.02138292  0.25618563  0.42988095    -0.61300
O21         O  0.02248983  0.29110740  0.49770693    -0.73800
O22         O  0.02074564  0.21958105  0.49352825    -0.72600
Cu23       Cu  0.47462951  0.23284715  0.49501819     1.04600
Cu24       Cu  0.02306495  0.25598997  0.49536559     1.04300
C25         C  0.49785187  0.19720615  0.49478316     0.93700
C26         C  0.50024200  0.29178850  0.49718383     0.92800
C27         C  0.49870347  0.24484014  0.40910579     0.85000
C28         C  0.49850654  0.24412135  0.58089181     0.91300
C29         C  0.47446868  0.47999492  0.99598152     0.02700
C30         C  0.49950125  0.48016788  0.99552776     0.02700
C31         C  0.02431937  0.00515480  0.99611797     0.02700
C32         C  0.02423546  0.03005508  0.99702614     0.02700
C33         C  0.99916980  0.02989477  0.99817866     0.02700
C34         C  0.47427043  0.50483013  0.99765298     0.02700
C35         C  0.02627767  0.02170939  0.51309316     0.02700
C36         C  0.02759108  0.49745811  0.51352075     0.02700
C37         C  0.50330763  0.47172988  0.51422956     0.02700
C38         C  0.47766238  0.47053106  0.51388522     0.02700
C39         C  0.47637336  0.49486919  0.51395661     0.02700
C40         C  0.50075090  0.02047337  0.51337011     0.02700
O41         O  0.23370092  0.47531745  0.93474027    -0.72500
O42         O  0.23486886  0.47495248  0.06520097    -0.73500
O43         O  0.19888482  0.47544449  0.00109346    -0.62100
O44         O  0.26994661  0.47525201  0.99926802    -0.70500
O45         O  0.29238572  0.02041146  0.00061233    -0.70100
O46         O  0.22180240  0.02047308  0.00053159    -0.61300
O47         O  0.25710391  0.02004073  0.06582642    -0.73800
O48         O  0.25737887  0.02050144  0.93527927    -0.72600
Cu49       Cu  0.23352016  0.47364385  0.00003174     1.04600
Cu50       Cu  0.25789025  0.02189752  0.00055871     1.04300
C51         C  0.24570039  0.99790646  0.91450586     0.93700
C52         C  0.24633229  0.99735350  0.08635475     0.92800
C53         C  0.19908468  0.99800478  0.00116512     0.85000
C54         C  0.29247725  0.99790654  0.00018193     0.91300
O55         O  0.30002151  0.01968346  0.50186312    -0.72500
O56         O  0.23148166  0.02456282  0.49877799    -0.73500
O57         O  0.26489682  0.02249227  0.56558706    -0.62100
O58         O  0.26635032  0.02192717  0.43509973    -0.70500
O59         O  0.24057731  0.47672582  0.43547219    -0.70100
O60         O  0.24048341  0.47734892  0.56573893    -0.61300
O61         O  0.20670255  0.47941799  0.49994069    -0.73800
O62         O  0.27501785  0.47463723  0.50118625    -0.72600
Cu63       Cu  0.26662204  0.02374715  0.50030659     1.04600
Cu64       Cu  0.23991701  0.47548663  0.50058931     1.04300
C65         C  0.29841530  0.49633319  0.50185610     0.93700
C66         C  0.20813836  0.50267258  0.49916021     0.92800
C67         C  0.25209707  0.50002612  0.58631421     0.85000
C68         C  0.25304963  0.49922987  0.41464515     0.91300
O69         O  0.20323724  0.23035978  0.00337845    -0.72500
O70         O  0.27511516  0.30067555  0.99877140    -0.73500
O71         O  0.23648780  0.26569723  0.93605811    -0.62100
O72         O  0.24174306  0.26550018  0.06628199    -0.70500
O73         O  0.26221093  0.24084607  0.06205037    -0.70100
O74         O  0.25992042  0.24397261  0.93199826    -0.61300
O75         O  0.29691624  0.27741863  0.99671634    -0.73800
O76         O  0.22547615  0.20760910  0.99677792    -0.72600
Cu77       Cu  0.23838696  0.26640770  0.00136277     1.04600
Cu78       Cu  0.26187947  0.24167272  0.99678378     1.04300
C79         C  0.20308192  0.20777089  0.99992872     0.93700
C80         C  0.29746851  0.30023484  0.99688229     0.92800
C81         C  0.24765812  0.25502501  0.91346965     0.85000
C82         C  0.25242768  0.25284428  0.08468038     0.91300
O83         O  0.25883888  0.23709771  0.56603415    -0.72500
O84         O  0.26168769  0.23587727  0.43553342    -0.73500
O85         O  0.29648018  0.27136352  0.50203137    -0.62100
O86         O  0.22425971  0.20167898  0.49986344    -0.70500
O87         O  0.20285921  0.22534910  0.49661411    -0.70100
O88         O  0.27505581  0.29494136  0.49888144    -0.61300
O89         O  0.24034592  0.25957105  0.43242108    -0.73800
O90         O  0.23739959  0.26071287  0.56274748    -0.72600
Cu91       Cu  0.26107268  0.23569654  0.50095414     1.04600
Cu92       Cu  0.23821133  0.26098426  0.49747928     1.04300
C93         C  0.24754784  0.24892673  0.58516247     0.93700
C94         C  0.25129376  0.24743775  0.41315191     0.92800
C95         C  0.29726954  0.29432729  0.50119418     0.85000
C96         C  0.20207788  0.20241880  0.49820899     0.91300
C97         C  0.24116830  0.27073616  0.69922347    -0.01600
C98         C  0.24620616  0.25326967  0.72536747     0.07000
C99         C  0.25039456  0.23340933  0.70539634    -0.07500
C100        C  0.25037035  0.23116325  0.66004546     0.04500
C101        C  0.24646445  0.24941130  0.63352887    -0.14800
C102        C  0.24149864  0.26880900  0.65380618    -0.08100
C103        C  0.24709188  0.25514668  0.77361205     0.05400
C104        C  0.22364695  0.25038758  0.79644807    -0.09200
C105        C  0.22345731  0.25087091  0.84204005     0.00400
C106        C  0.24695234  0.25568322  0.86546594     0.00300
C107        C  0.27041537  0.26064466  0.84255876    -0.12800
C108        C  0.27076333  0.26068326  0.79708700     0.00700
C109        C  0.19855707  0.24514667  0.86381244     0.40000
C110        C  0.29582566  0.26695094  0.77530317     0.36700
C111        C  0.23607766  0.29108805  0.71823945     0.36400
C112        C  0.25341540  0.20927621  0.64205069     0.37200
N113        N  0.17855521  0.24055849  0.88110965    -0.43600
N114        N  0.31596822  0.27203069  0.75799899    -0.44100
N115        N  0.25568146  0.19160061  0.62776594    -0.41400
N116        N  0.23178204  0.30721985  0.73360529    -0.42900
H117        H  0.23818189  0.28281241  0.63418621     0.13300
H118        H  0.25350221  0.21942556  0.72547506     0.09800
H119        H  0.20531116  0.24584730  0.77857284     0.10800
H120        H  0.28867220  0.26475557  0.86030256     0.16600
C121        C  0.24253983  0.22412895  0.19837196    -0.01600
C122        C  0.25120785  0.24768776  0.22416486     0.07000
C123        C  0.26104131  0.27310453  0.20378547    -0.07500
C124        C  0.26185115  0.27525301  0.15837748     0.04500
C125        C  0.25302380  0.25168662  0.13258523    -0.14800
C126        C  0.24377537  0.22634166  0.15290754    -0.08100
C127        C  0.25025306  0.24643682  0.27244295     0.05400
C128        C  0.26712653  0.23900887  0.29486326    -0.09200
C129        C  0.26791711  0.23906902  0.34048702     0.00400
C130        C  0.25140426  0.24664626  0.36464834     0.00300
C131        C  0.23428302  0.25373676  0.34177145    -0.12800
C132        C  0.23360249  0.25369111  0.29626252     0.00700
C133        C  0.28652532  0.23208228  0.36113742     0.40000
C134        C  0.21536221  0.26082556  0.27466453     0.36700
C135        C  0.23123480  0.19739239  0.21774331     0.36400
C136        C  0.27263258  0.30193819  0.13899509     0.37200
N137        N  0.30151370  0.22650486  0.37748987    -0.43600
N138        N  0.20077730  0.26655919  0.25730387    -0.44100
N139        N  0.28134062  0.32329319  0.12332889    -0.41400
N140        N  0.22202769  0.17592408  0.23318209    -0.42900
H141        H  0.23672672  0.20812346  0.13319231     0.13300
H142        H  0.26807253  0.29131573  0.22350439     0.09800
H143        H  0.28014222  0.23365004  0.27655239     0.10800
H144        H  0.22120824  0.25929151  0.35942434     0.16600
C145        C  0.22165005  0.98210836  0.79786469    -0.01600
C146        C  0.24625077  0.99750667  0.77477944     0.07000
C147        C  0.27072840  0.51339575  0.79768643    -0.07500
C148        C  0.27094161  0.51387031  0.84323132     0.04500
C149        C  0.24640622  0.49814327  0.86641650    -0.14800
C150        C  0.22190347  0.98217957  0.84346092    -0.08100
C151        C  0.24710168  0.99768614  0.72657926     0.05400
C152        C  0.25282858  0.52160462  0.70432567    -0.09200
C153        C  0.25418177  0.52285516  0.65880788     0.00400
C154        C  0.25056294  0.49995647  0.63460089     0.00300
C155        C  0.24465126  0.97595777  0.65723052    -0.12800
C156        C  0.24282749  0.97464216  0.70265738     0.00700
C157        C  0.25801782  0.54744909  0.63813808     0.40000
C158        C  0.23684222  0.94952429  0.72402227     0.36700
C159        C  0.19589154  0.96684562  0.77538543     0.36400
C160        C  0.29673412  0.52975324  0.86540497     0.37200
N161        N  0.26087680  0.56714177  0.62181790    -0.43600
N162        N  0.23185891  0.92931715  0.74106535    -0.44100
N163        N  0.31741021  0.54240909  0.88317133    -0.41400
N164        N  0.17528939  0.95475073  0.75720572    -0.42900
H165        H  0.20294252  0.97031877  0.86111371     0.13300
H166        H  0.28966162  0.52524835  0.77995468     0.09800
H167        H  0.25574707  0.53921942  0.72275547     0.10800
H168        H  0.24164989  0.95814459  0.63934220     0.16600
C169        C  0.27585950  0.01728993  0.29808248    -0.01600
C170        C  0.25156839  0.00023599  0.27500634     0.07000
C171        C  0.22776012  0.48251581  0.29800920    -0.07500
C172        C  0.22777754  0.48193965  0.34353168     0.04500
C173        C  0.25203946  0.49913752  0.36665021    -0.14800
C174        C  0.27588087  0.01679863  0.34362318    -0.08100
C175        C  0.25045294  0.99989369  0.22674796     0.05400
C176        C  0.24445221  0.47581921  0.20467829    -0.09200
C177        C  0.24287801  0.47434029  0.15919576     0.00400
C178        C  0.24730715  0.49743656  0.13465988     0.00300
C179        C  0.25346943  0.02153922  0.15705067    -0.12800
C180        C  0.25484131  0.02288361  0.20252199     0.00700
C181        C  0.23725783  0.44898992  0.13904633     0.40000
C182        C  0.26001114  0.04782944  0.22361175     0.36700
C183        C  0.30112394  0.03500145  0.27582033     0.36400
C184        C  0.20231853  0.46461799  0.36566299     0.37200
N185        N  0.23269780  0.42859039  0.12315927    -0.43600
N186        N  0.26422313  0.06783160  0.24054856    -0.44100
N187        N  0.18188227  0.45089657  0.38338634    -0.41400
N188        N  0.32136247  0.04931936  0.25804436    -0.42900
H189        H  0.29463539  0.02988663  0.36116219     0.13300
H190        H  0.20905059  0.46941160  0.28036993     0.09800
H191        H  0.24121536  0.45814141  0.22326422     0.10800
H192        H  0.25688923  0.03943616  0.13897680     0.16600
C193        C  0.08541994  0.08533723  0.46477099    -0.01600
C194        C  0.10037046  0.09922205  0.50220575     0.07000
C195        C  0.09063522  0.08784430  0.54340698    -0.07500
C196        C  0.06655714  0.06267399  0.54765800     0.04500
C197        C  0.05178367  0.04865111  0.51020747    -0.14800
C198        C  0.06122986  0.06028032  0.46905580    -0.08100
C199        C  0.12623464  0.12565033  0.49928886     0.05400
C200        C  0.12654974  0.14951994  0.51229225    -0.09200
C201        C  0.15077657  0.17481622  0.51160754     0.00400
C202        C  0.17547494  0.17641620  0.49811130     0.00300
C203        C  0.17491556  0.15232805  0.48493687    -0.12800
C204        C  0.15061142  0.12715042  0.48524645     0.00700
C205        C  0.14963503  0.19845803  0.52627578     0.40000
C206        C  0.15124202  0.10303956  0.47173145     0.36700
C207        C  0.09441043  0.09653126  0.42179322     0.36400
C208        C  0.05717526  0.05184215  0.59068277     0.37200
N209        N  0.14863045  0.21736521  0.53798444    -0.43600
N210        N  0.15173289  0.08374351  0.46072632    -0.44100
N211        N  0.04959868  0.04335649  0.62527231    -0.41400
N212        N  0.10163380  0.10546947  0.38731678    -0.42900
H213        H  0.04973696  0.04960637  0.44024723     0.13300
H214        H  0.10201374  0.09859805  0.57225767     0.09800
H215        H  0.10776919  0.14831235  0.52325756     0.10800
H216        H  0.19353958  0.15310563  0.47426636     0.16600
C217        C  0.41036479  0.41030649  0.54925862    -0.01600
C218        C  0.40253475  0.39358896  0.51195968     0.07000
C219        C  0.41940435  0.40209768  0.47517673    -0.07500
C220        C  0.44380844  0.42714721  0.47501423     0.04500
C221        C  0.45190236  0.44372433  0.51258501    -0.14800
C222        C  0.43492492  0.43516912  0.54931497    -0.08100
C223        C  0.37589811  0.36805592  0.50958579     0.05400
C224        C  0.35232970  0.36988783  0.50444278    -0.09200
C225        C  0.32660879  0.34640993  0.50128209     0.00400
C226        C  0.32412546  0.32019232  0.50347986     0.00300
C227        C  0.34807451  0.31863473  0.50869743    -0.12800
C228        C  0.37377578  0.34225222  0.51166627     0.00700
C229        C  0.30345676  0.35027296  0.49550456     0.40000
C230        C  0.39766985  0.33962146  0.51762029     0.36700
C231        C  0.39351162  0.40228786  0.58774317     0.36400
C232        C  0.45948039  0.43601578  0.43533351     0.37200
N233        N  0.28506195  0.35362987  0.49083482    -0.43600
N234        N  0.41686008  0.33761386  0.52251353    -0.44100
N235        N  0.47197683  0.44313458  0.40344611    -0.41400
N236        N  0.37996502  0.39582058  0.61855364    -0.42900
H237        H  0.44091561  0.44800819  0.57805346     0.13300
H238        H  0.41307367  0.38946941  0.44616556     0.09800
H239        H  0.35411877  0.38987012  0.50263309     0.10800
H240        H  0.34682750  0.29892181  0.51069435     0.16600
C241        C  0.09421174  0.00752962  0.46856329    -0.01600
C242        C  0.10582733  0.50248804  0.50532950     0.07000
C243        C  0.09193915  0.49607079  0.54515188    -0.07500
C244        C  0.06651658  0.49445170  0.54860057     0.04500
C245        C  0.05465602  0.49915381  0.51162840    -0.14800
C246        C  0.06870067  0.00566183  0.47188311    -0.08100
C247        C  0.13202161  0.50276969  0.50247885     0.05400
C248        C  0.15639683  0.02684351  0.51260266    -0.09200
C249        C  0.18155546  0.02769603  0.51076890     0.00400
C250        C  0.18244073  0.50384400  0.49912263     0.00300
C251        C  0.15782196  0.47988521  0.48893697    -0.12800
C252        C  0.13282638  0.47923852  0.49038114     0.00700
C253        C  0.20576394  0.05311442  0.52172249     0.40000
C254        C  0.10818083  0.45416165  0.47956692     0.36700
C255        C  0.10807688  0.01446860  0.42715875     0.36400
C256        C  0.05319481  0.48825144  0.59041094     0.37200
N257        N  0.22511116  0.07358134  0.53033380    -0.43600
N258        N  0.08842444  0.43409353  0.47086742    -0.44100
N259        N  0.04277431  0.48339484  0.62416940    -0.41400
N260        N  0.11932726  0.02008874  0.39407563    -0.42900
H261        H  0.05957503  0.00914759  0.44334035     0.13300
H262        H  0.10094561  0.49218765  0.57347453     0.09800
H263        H  0.15565441  0.04491674  0.52207153     0.10800
H264        H  0.15799500  0.46147013  0.47983013     0.16600
C265        C  0.40956747  0.48594031  0.47077599    -0.01600
C266        C  0.39936447  0.49301837  0.50726343     0.07000
C267        C  0.41405581  0.99983758  0.54656415    -0.07500
C268        C  0.43882395  0.99997057  0.54961208     0.04500
C269        C  0.44942193  0.49363339  0.51269142    -0.14800
C270        C  0.43447696  0.48637011  0.47367963    -0.08100
C271        C  0.37361734  0.99383035  0.50509697     0.05400
C272        C  0.34883987  0.47015565  0.51403397    -0.09200
C273        C  0.32409663  0.47021575  0.51270037     0.00400
C274        C  0.32393742  0.49464620  0.50273118     0.00300
C275        C  0.34901084  0.01828512  0.49355675    -0.12800
C276        C  0.37360277  0.01796114  0.49416863     0.00700
C277        C  0.29943677  0.44488633  0.52218201     0.40000
C278        C  0.39857082  0.04244306  0.48251136     0.36700
C279        C  0.39481711  0.47829820  0.43009463     0.36400
C280        C  0.45262937  0.00590452  0.59109791     0.37200
N281        N  0.27972943  0.42448818  0.52959938    -0.43600
N282        N  0.41857416  0.06192361  0.47268965    -0.44100
N283        N  0.46364393  0.01051145  0.62440035    -0.41400
N284        N  0.38289019  0.47209927  0.39756147    -0.42900
H285        H  0.44243331  0.48123612  0.44538639     0.13300
H286        H  0.40609321  0.00501296  0.57481374     0.09800
H287        H  0.34887029  0.45151614  0.52214149     0.10800
H288        H  0.34946764  0.03711615  0.48519201     0.16600
C289        C  0.12951804  0.15489784  0.02372685    -0.01600
C290        C  0.12665701  0.13198972  0.00103562     0.07000
C291        C  0.14875383  0.13400407  0.97762682    -0.07500
C292        C  0.17379584  0.15837921  0.97696927     0.04500
C293        C  0.17685496  0.18156419  0.99956855    -0.14800
C294        C  0.15442350  0.17953673  0.02249385    -0.08100
C295        C  0.10057942  0.10580239  0.00048700     0.05400
C296        C  0.08468786  0.09819247  0.96253695    -0.09200
C297        C  0.05993915  0.07352292  0.96054319     0.00400
C298        C  0.05056898  0.05634432  0.99736084     0.00300
C299        C  0.06667008  0.06391383  0.03515724    -0.12800
C300        C  0.09172563  0.08823811  0.03675273     0.00700
C301        C  0.04492412  0.06604146  0.92011333     0.40000
C302        C  0.10841684  0.09433089  0.07527772     0.36700
C303        C  0.10710399  0.15347653  0.04827339     0.36400
C304        C  0.19568476  0.15907179  0.95186994     0.37200
N305        N  0.03301204  0.06017845  0.88756024    -0.43600
N306        N  0.12188026  0.09905151  0.10602932    -0.44100
N307        N  0.21327046  0.15962293  0.93190634    -0.41400
N308        N  0.08906576  0.15208783  0.06803602    -0.42900
H309        H  0.15646492  0.19707223  0.04008035     0.13300
H310        H  0.14638889  0.11639951  0.95985698     0.09800
H311        H  0.09176095  0.11151339  0.93436283     0.10800
H312        H  0.05969153  0.05066373  0.06337908     0.16600
C313        C  0.34763622  0.37612871  0.98718566    -0.01600
C314        C  0.37299396  0.37730862  0.99015439     0.07000
C315        C  0.37379637  0.35312472  0.99460016    -0.07500
C316        C  0.34970624  0.32776938  0.99633019     0.04500
C317        C  0.32397445  0.32640932  0.99440883    -0.14800
C318        C  0.32348470  0.35091052  0.98956061    -0.08100
C319        C  0.39894227  0.40366571  0.99078245     0.05400
C320        C  0.41298044  0.41287334  0.03036603    -0.09200
C321        C  0.43746059  0.43776242  0.03275763     0.00400
C322        C  0.44831729  0.45366264  0.99495519     0.00300
C323        C  0.43427114  0.44446829  0.95533630    -0.12800
C324        C  0.40971654  0.41960490  0.95296585     0.00700
C325        C  0.45093302  0.44665905  0.07435362     0.40000
C326        C  0.39615046  0.41065249  0.91141768     0.36700
C327        C  0.34593188  0.40058176  0.98210512     0.36400
C328        C  0.35241837  0.30381586  0.00026607     0.37200
N329        N  0.46170171  0.45369390  0.10776075    -0.43600
N330        N  0.38526212  0.40348100  0.87811816    -0.44100
N331        N  0.35485686  0.28476496  0.00323050    -0.41400
N332        N  0.34460901  0.42017546  0.97762073    -0.42900
H333        H  0.30416421  0.35049299  0.98751798     0.13300
H334        H  0.39340554  0.35411835  0.99677666     0.09800
H335        H  0.40463750  0.40065486  0.05948627     0.10800
H336        H  0.44259906  0.45670075  0.92625226     0.16600
C337        C  0.08561433  0.50218865  0.03793037    -0.01600
C338        C  0.09947890  0.50353083  0.99910538     0.07000
C339        C  0.08872581  0.00573821  0.95913046    -0.07500
C340        C  0.06453940  0.00675729  0.95747823     0.04500
C341        C  0.05057509  0.00513929  0.99628440    -0.14800
C342        C  0.06132105  0.50293665  0.03622604    -0.08100
C343        C  0.12495847  0.00213915  0.99954941     0.05400
C344        C  0.12427608  0.47840423  0.01369464    -0.09200
C345        C  0.14801262  0.47650455  0.01491395     0.00400
C346        C  0.17312822  0.99868137  0.00123963     0.00300
C347        C  0.17374583  0.02272045  0.98750040    -0.12800
C348        C  0.15002852  0.02459518  0.98662192     0.00700
C349        C  0.14585193  0.45173544  0.03199412     0.40000
C350        C  0.15200219  0.05000327  0.97338201     0.36700
C351        C  0.09630559  0.50074062  0.07989657     0.36400
C352        C  0.05445566  0.00939577  0.91568682     0.37200
N353        N  0.14399907  0.43188047  0.04592915    -0.43600
N354        N  0.15351927  0.07034319  0.96284905    -0.44100
N355        N  0.04659728  0.01156903  0.88198552    -0.41400
N356        N  0.10495801  0.49965845  0.11350993    -0.42900
H357        H  0.05066007  0.50181807  0.06612272     0.13300
H358        H  0.09930382  0.00670889  0.92920396     0.09800
H359        H  0.10501172  0.46119164  0.02410773     0.10800
H360        H  0.19283245  0.04019395  0.97721546     0.16600
C361        C  0.36799042  0.02435064  0.98484122    -0.01600
C362        C  0.37078125  0.50232150  0.99975799     0.07000
C363        C  0.34786405  0.47894979  0.01602134    -0.07500
C364        C  0.32211775  0.47683064  0.01633150     0.04500
C365        C  0.31907732  0.99862362  0.00038712    -0.14800
C366        C  0.34231806  0.02229675  0.98509219    -0.08100
C367        C  0.39742505  0.50325563  0.99871334     0.05400
C368        C  0.41028694  0.00396870  0.03811009    -0.09200
C369        C  0.43539932  0.00475350  0.03847137     0.00400
C370        C  0.44783861  0.50452288  0.99886962     0.00300
C371        C  0.43494092  0.50374923  0.95946560    -0.12800
C372        C  0.40993611  0.50316426  0.95909121     0.00700
C373        C  0.44786988  0.00573195  0.07988619     0.40000
C374        C  0.39726731  0.50204442  0.91774908     0.36700
C375        C  0.39131477  0.04949871  0.97030399     0.36400
C376        C  0.29957122  0.45248528  0.03467789     0.37200
N377        N  0.45753698  0.00654584  0.11345534    -0.43600
N378        N  0.38709899  0.50128063  0.88468028    -0.44100
N379        N  0.28160580  0.43294795  0.04952198    -0.41400
N380        N  0.41005245  0.06964620  0.95880070    -0.42900
H381        H  0.34048695  0.03934055  0.97317635     0.13300
H382        H  0.35014507  0.46229843  0.02854513     0.09800
H383        H  0.40071346  0.00403985  0.06860939     0.10800
H384        H  0.44444407  0.50354203  0.92897944     0.16600
C385        C  0.00402751  0.08644028  0.54712829    -0.01600
C386        C  0.99835358  0.09530379  0.50755934     0.07000
C387        C  0.49384828  0.07965583  0.46979534    -0.07500
C388        C  0.49461642  0.05533460  0.47110064     0.04500
C389        C  0.49960929  0.04615536  0.51083679    -0.14800
C390        C  0.00446976  0.06194556  0.54846929    -0.08100
C391        C  0.99775324  0.12117893  0.50436332     0.05400
C392        C  0.01755686  0.14248560  0.47900868    -0.09200
C393        C  0.01778792  0.16723697  0.47481662     0.00400
C394        C  0.49756391  0.17086355  0.49609250     0.00300
C395        C  0.47737711  0.14923746  0.52067222    -0.12800
C396        C  0.47734659  0.12458147  0.52515325     0.00700
C397        C  0.03838576  0.18813097  0.44743960     0.40000
C398        C  0.45623231  0.10307249  0.55098225     0.36700
C399        C  0.01024460  0.10250950  0.58637755     0.36400
C400        C  0.49091285  0.04044772  0.43116637     0.37200
N401        N  0.05487173  0.20483067  0.42542801    -0.43600
N402        N  0.43939835  0.08584626  0.57182145    -0.44100
N403        N  0.48803825  0.02851633  0.39916889    -0.41400
N404        N  0.01522998  0.11537419  0.61786055    -0.42900
H405        H  0.00875049  0.05516480  0.57892840     0.13300
H406        H  0.48989863  0.08658616  0.43916092     0.09800
H407        H  0.03298366  0.13977436  0.46257998     0.10800
H408        H  0.46189925  0.15179409  0.53722630     0.16600
C409        C  0.48486582  0.34842957  0.47410917    -0.01600
C410        C  0.50314953  0.36924253  0.50244564     0.07000
C411        C  0.02005571  0.36425598  0.52969149    -0.07500
C412        C  0.01935246  0.33917273  0.52855418     0.04500
C413        C  0.50130395  0.31842190  0.49982256    -0.14800
C414        C  0.48397081  0.32322489  0.47319084    -0.08100
C415        C  0.50429861  0.39600402  0.50541914     0.05400
C416        C  0.49549306  0.40256983  0.54380863    -0.09200
C417        C  0.49563978  0.42728934  0.54782157     0.00400
C418        C  0.50466865  0.44599031  0.51282573     0.00300
C419        C  0.01437374  0.43974590  0.47488466    -0.12800
C420        C  0.01426719  0.41503530  0.47095310     0.00700
C421        C  0.48671216  0.43302996  0.58837538     0.40000
C422        C  0.02460211  0.40967461  0.43150313     0.36700
C423        C  0.46658199  0.35235398  0.44618683     0.36400
C424        C  0.03641356  0.33482232  0.55869037     0.37200
N425        N  0.47951823  0.43740137  0.62107851    -0.43600
N426        N  0.03284479  0.40527261  0.39992694    -0.44100
N427        N  0.04997851  0.33128017  0.58297541    -0.41400
N428        N  0.45201672  0.35558176  0.42372143    -0.42900
H429        H  0.46994113  0.30737181  0.45121965     0.13300
H430        H  0.03379815  0.38003409  0.55203532     0.09800
H431        H  0.48822844  0.38816323  0.57061531     0.10800
H432        H  0.02153562  0.45401874  0.44792966     0.16600
C433        C  0.00975935  0.23195733  0.69776362    -0.01600
C434        C  0.99684311  0.24412076  0.72028464     0.07000
C435        C  0.48453286  0.25632183  0.69669186    -0.07500
C436        C  0.48505312  0.25662563  0.65118088     0.04500
C437        C  0.49804752  0.24456816  0.62872239    -0.14800
C438        C  0.01047511  0.23245461  0.65219676    -0.08100
C439        C  0.99739730  0.24593680  0.76846833     0.05400
C440        C  0.02259848  0.26143035  0.78932329    -0.09200
C441        C  0.02427898  0.26481491  0.83453816     0.00400
C442        C  0.50016617  0.25237977  0.86021074     0.00300
C443        C  0.47488102  0.23677234  0.83893057    -0.12800
C444        C  0.47331642  0.23355456  0.79362766     0.00700
C445        C  0.05111430  0.28149483  0.85308547     0.40000
C446        C  0.44686867  0.21709423  0.77365866     0.36700
C447        C  0.02189646  0.21839954  0.72069452     0.36400
C448        C  0.47343431  0.27069189  0.62823872     0.37200
N449        N  0.07271140  0.29493046  0.86761688    -0.43600
N450        N  0.42566443  0.20393865  0.75767703    -0.44100
N451        N  0.46433961  0.28212110  0.60975182    -0.41400
N452        N  0.03157442  0.20747493  0.73904363    -0.42900
H453        H  0.02028807  0.22298236  0.63494522     0.13300
H454        H  0.47506564  0.26615979  0.71388014     0.09800
H455        H  0.04109530  0.27125598  0.76997133     0.10800
H456        H  0.45615579  0.22684187  0.85765538     0.16600
C457        C  0.02503494  0.26355378  0.29334797    -0.01600
C458        C  0.50091531  0.24987032  0.26849692     0.07000
C459        C  0.47601628  0.23355574  0.28975919    -0.07500
C460        C  0.47465416  0.23120455  0.33517752     0.04500
C461        C  0.49876307  0.24552306  0.36055659    -0.14800
C462        C  0.02378919  0.26135665  0.33877074    -0.08100
C463        C  0.50120976  0.25187141  0.22018885     0.05400
C464        C  0.01683234  0.24359384  0.19598244    -0.09200
C465        C  0.01755211  0.24502925  0.15049821     0.00400
C466        C  0.50199967  0.25439278  0.12840604     0.00300
C467        C  0.48594085  0.26217483  0.15232442    -0.12800
C468        C  0.48567570  0.26131179  0.19787608     0.00700
C469        C  0.03351272  0.23568150  0.12728557     0.40000
C470        C  0.46992717  0.27095408  0.22093436     0.36700
C471        C  0.05130335  0.28041543  0.27321367     0.36400
C472        C  0.44818818  0.21359550  0.35420279     0.37200
N473        N  0.04625575  0.22814894  0.10866850    -0.43600
N474        N  0.45731220  0.27872956  0.23930965    -0.44100
N475        N  0.42690590  0.19939676  0.36914962    -0.41400
N476        N  0.07238926  0.29377135  0.25709458    -0.42900
H477        H  0.04254994  0.27238822  0.35728887     0.13300
H478        H  0.45749945  0.22244621  0.27063872     0.09800
H479        H  0.02835285  0.23577000  0.21277733     0.10800
H480        H  0.47397116  0.26942907  0.13536861     0.16600
C481        C  0.02292149  0.15656344  0.97808672    -0.01600
C482        C  0.00142073  0.13307245  0.99742959     0.07000
C483        C  0.47982614  0.13445068  0.01686017    -0.07500
C484        C  0.47914396  0.15881495  0.01690992     0.04500
C485        C  0.00058083  0.18251803  0.99724007    -0.14800
C486        C  0.02241925  0.18104994  0.97827683    -0.08100
C487        C  0.00076259  0.10663700  0.99729864     0.05400
C488        C  0.00696587  0.09752614  0.03575286    -0.09200
C489        C  0.00621328  0.07243890  0.03694257     0.00400
C490        C  0.99901078  0.05608148  0.99919085     0.00300
C491        C  0.49218827  0.06497462  0.96112521    -0.12800
C492        C  0.49323250  0.09015098  0.95978893     0.00700
C493        C  0.01262342  0.06379257  0.07725307     0.40000
C494        C  0.48641776  0.09863481  0.91966521     0.36700
C495        C  0.04568540  0.15596156  0.95808196     0.36400
C496        C  0.45658315  0.15893152  0.03854963     0.37200
N497        N  0.01780762  0.05692398  0.10961080    -0.43600
N498        N  0.48104234  0.10546539  0.88744735    -0.44100
N499        N  0.43846158  0.15890571  0.05596570    -0.41400
N500        N  0.06388490  0.15541085  0.94204218    -0.42900
H501        H  0.03898689  0.19897455  0.96303090     0.13300
H502        H  0.46334840  0.11632290  0.03186151     0.09800
H503        H  0.01248868  0.11010439  0.06477586     0.10800
H504        H  0.48645775  0.05236902  0.93214720     0.16600
C505        C  0.50599210  0.42031740  0.03487953    -0.01600
C506        C  0.50254490  0.40566632  0.99606184     0.07000
C507        C  0.99780350  0.41542665  0.95665738    -0.07500
C508        C  0.99649981  0.43949710  0.95588653     0.04500
C509        C  0.49987842  0.45406240  0.99496844    -0.14800
C510        C  0.50464500  0.44431584  0.03404412    -0.08100
C511        C  0.50280109  0.37960553  0.99595917     0.05400
C512        C  0.48042747  0.35631894  0.01346335    -0.09200
C513        C  0.47954601  0.33115617  0.01375677     0.00400
C514        C  0.50146621  0.32894910  0.99601721     0.00300
C515        C  0.02399794  0.35251823  0.97895310    -0.12800
C516        C  0.02474631  0.37766555  0.97866353     0.00700
C517        C  0.45627695  0.30832146  0.03391880     0.40000
C518        C  0.04852909  0.40140422  0.96147845     0.36700
C519        C  0.51139939  0.41134719  0.07575323     0.36400
C520        C  0.99184304  0.44893190  0.91488750     0.37200
N521        N  0.43760293  0.29012910  0.05022324    -0.43600
N522        N  0.06756862  0.42049228  0.94781958    -0.44100
N523        N  0.98801088  0.45641768  0.88199974    -0.41400
N524        N  0.51578032  0.40418963  0.10851802    -0.42900
H525        H  0.50749264  0.45561803  0.06391458     0.13300
H526        H  0.99505780  0.40415460  0.92676023     0.09800
H527        H  0.46357377  0.35786833  0.02703913     0.10800
H528        H  0.04107669  0.35132310  0.96556196     0.16600
O529        O  0.47814905  0.70893849  0.99629513    -0.72500
O530        O  0.47862183  0.77998456  0.99452385    -0.73500
O531        O  0.47796788  0.74355144  0.92980146    -0.62100
O532        O  0.47877641  0.74510541  0.06043275    -0.70500
O533        O  0.02405297  0.76660620  0.05957687    -0.70100
O534        O  0.02308442  0.76633758  0.92925499    -0.61300
O535        O  0.02379234  0.80249608  0.99458247    -0.73800
O536        O  0.02335390  0.73118319  0.99437346    -0.72600
Cu537      Cu  0.47681542  0.74368059  0.99520973     1.04600
Cu538      Cu  0.02514534  0.76752610  0.99436922     1.04300
C539        C  0.00062027  0.70875134  0.99591869     0.93700
C540        C  0.00121166  0.80252387  0.99499899     0.92800
C541        C  0.00044639  0.75436233  0.90864510     0.85000
C542        C  0.00154964  0.75551082  0.08049314     0.91300
O543        O  0.47527082  0.69743970  0.49595712    -0.72500
O544        O  0.47700440  0.76957817  0.49464804    -0.73500
O545        O  0.47600236  0.73321808  0.43001812    -0.62100
O546        O  0.47583453  0.73390901  0.56007231    -0.70500
O547        O  0.02106459  0.75392360  0.56078915    -0.70100
O548        O  0.02110066  0.75607339  0.42996728    -0.61300
O549        O  0.02217594  0.79095494  0.49780915    -0.73800
O550        O  0.02047748  0.71946220  0.49357945    -0.72600
Cu551      Cu  0.47444072  0.73272905  0.49508548     1.04600
Cu552      Cu  0.02277566  0.75585646  0.49544079     1.04300
C553        C  0.49770935  0.69712805  0.49484310     0.93700
C554        C  0.50002423  0.79166965  0.49728850     0.92800
C555        C  0.49850615  0.74475166  0.40916744     0.85000
C556        C  0.49832698  0.74400247  0.58095087     0.91300
C557        C  0.47444292  0.97999484  0.99591553     0.02700
C558        C  0.49946247  0.98013979  0.99540839     0.02700
C559        C  0.02433858  0.50519743  0.99613163     0.02700
C560        C  0.02423266  0.53008602  0.99706353     0.02700
C561        C  0.99915597  0.52990316  0.99820623     0.02700
C562        C  0.47427576  0.00484491  0.99762627     0.02700
C563        C  0.02623167  0.52172438  0.51298287     0.02700
C564        C  0.02760729  0.99742757  0.51357581     0.02700
C565        C  0.50331876  0.97172537  0.51418358     0.02700
C566        C  0.47767891  0.97054252  0.51382900     0.02700
C567        C  0.47640798  0.99489382  0.51397322     0.02700
C568        C  0.50070226  0.52045329  0.51328927     0.02700
O569        O  0.23364444  0.97519363  0.93484149    -0.72500
O570        O  0.23485594  0.97487271  0.06530897    -0.73500
O571        O  0.19882319  0.97528934  0.00120617    -0.62100
O572        O  0.26994249  0.97520050  0.99935196    -0.70500
O573        O  0.29242967  0.52046153  0.00059374    -0.70100
O574        O  0.22189804  0.52062942  0.00041622    -0.61300
O575        O  0.25713575  0.52012481  0.06576158    -0.73800
O576        O  0.25748627  0.52062198  0.93519709    -0.72600
Cu577      Cu  0.23348853  0.97354013  0.00013558     1.04600
Cu578      Cu  0.25796243  0.52200169  0.00048857     1.04300
C579        C  0.24579321  0.49803102  0.91441028     0.93700
C580        C  0.24634891  0.49742715  0.08626206     0.92800
C581        C  0.19917057  0.49817188  0.00105789     0.85000
C582        C  0.29249469  0.49794284  0.00013979     0.91300
O583        O  0.30000616  0.51969351  0.50166586    -0.72500
O584        O  0.23142804  0.52451646  0.49866137    -0.73500
O585        O  0.26489963  0.52250049  0.56543944    -0.62100
O586        O  0.26627267  0.52188637  0.43495553    -0.70500
O587        O  0.24062292  0.97676758  0.43558222    -0.70100
O588        O  0.24046237  0.97734172  0.56585609    -0.61300
O589        O  0.20673100  0.97946176  0.50002327    -0.73800
O590        O  0.27501951  0.97462807  0.50133867    -0.72600
Cu591      Cu  0.26658533  0.52373059  0.50015404     1.04600
Cu592      Cu  0.23992967  0.97550295  0.50070267     1.04300
C593        C  0.29842086  0.99631917  0.50203914     0.93700
C594        C  0.20818658  0.00272553  0.49926413     0.92800
C595        C  0.25207254  0.00001400  0.58644570     0.85000
C596        C  0.25312213  0.99927721  0.41477387     0.91300
O597        O  0.20326342  0.73032453  0.00359110    -0.72500
O598        O  0.27511104  0.80062871  0.99894495    -0.73500
O599        O  0.23649873  0.76564681  0.93624679    -0.62100
O600        O  0.24176255  0.76546832  0.06647373    -0.70500
O601        O  0.26224182  0.74082480  0.06224747    -0.70100
O602        O  0.25994613  0.74393716  0.93219460    -0.61300
O603        O  0.29694008  0.77739871  0.99689840    -0.73800
O604        O  0.22550442  0.70757364  0.99698498    -0.72600
Cu605      Cu  0.23840009  0.76636517  0.00155397     1.04600
Cu606      Cu  0.26190725  0.74164343  0.99698010     1.04300
C607        C  0.20311166  0.70773871  0.00014563     0.93700
C608        C  0.29747213  0.80020565  0.99704904     0.92800
C609        C  0.24768510  0.75498952  0.91366128     0.85000
C610        C  0.25245034  0.75281644  0.08487544     0.91300
O611        O  0.25890857  0.73709593  0.56620973    -0.72500
O612        O  0.26165985  0.73579539  0.43570998    -0.73500
O613        O  0.29651497  0.77131750  0.50212748    -0.62100
O614        O  0.22426701  0.70164433  0.50010707    -0.70500
O615        O  0.20288082  0.72532912  0.49686298    -0.70100
O616        O  0.27509236  0.79489783  0.49899852    -0.61300
O617        O  0.24033088  0.75950233  0.43260430    -0.73800
O618        O  0.23747389  0.76071546  0.56293543    -0.72600
Cu619      Cu  0.26109277  0.73565406  0.50112843     1.04600
Cu620      Cu  0.23824129  0.76095201  0.49766564     1.04300
C621        C  0.24763891  0.74894333  0.58534580     0.93700
C622        C  0.25125768  0.74734943  0.41333282     0.92800
C623        C  0.29730659  0.79428249  0.50126960     0.85000
C624        C  0.20209024  0.70239494  0.49846043     0.91300
C625        C  0.24130556  0.77080691  0.69939287    -0.01600
C626        C  0.24639161  0.75337876  0.72555239     0.07000
C627        C  0.25061474  0.73353687  0.70559587    -0.07500
C628        C  0.25056453  0.73126269  0.66024814     0.04500
C629        C  0.24660046  0.74946669  0.63371466    -0.14800
C630        C  0.24161449  0.76885506  0.65397713    -0.08100
C631        C  0.24724762  0.75524324  0.77379974     0.05400
C632        C  0.22378454  0.75047151  0.79659298    -0.09200
C633        C  0.22355175  0.75091264  0.84218469     0.00400
C634        C  0.24701761  0.75568290  0.86565639     0.00300
C635        C  0.27050027  0.76065980  0.84279356    -0.12800
C636        C  0.27089487  0.76075054  0.79732255     0.00700
C637        C  0.19863828  0.74519544  0.86390294     0.40000
C638        C  0.29598067  0.76704328  0.77559406     0.36700
C639        C  0.23617134  0.79113492  0.71838779     0.36400
C640        C  0.25363178  0.70938322  0.64227929     0.37200
N641        N  0.17862451  0.74061593  0.88114937    -0.43600
N642        N  0.31614451  0.77214532  0.75834129    -0.44100
N643        N  0.25591350  0.69171149  0.62801882    -0.41400
N644        N  0.23183727  0.80724562  0.73373362    -0.42900
H645        H  0.23825472  0.78282599  0.63434599     0.13300
H646        H  0.25375461  0.71957799  0.72568494     0.09800
H647        H  0.20546579  0.74595125  0.77868355     0.10800
H648        H  0.28873839  0.76474688  0.86057258     0.16600
C649        C  0.24252873  0.72405009  0.19853278    -0.01600
C650        C  0.25114268  0.74758777  0.22435474     0.07000
C651        C  0.26095225  0.77301090  0.20400918    -0.07500
C652        C  0.26179481  0.77518618  0.15860388     0.04500
C653        C  0.25302517  0.75164050  0.13278100    -0.14800
C654        C  0.24379816  0.72629002  0.15307273    -0.08100
C655        C  0.25017258  0.74631144  0.27262985     0.05400
C656        C  0.26708396  0.73892991  0.29504249    -0.09200
C657        C  0.26788212  0.73899484  0.34066489     0.00400
C658        C  0.25133973  0.74653086  0.36483195     0.00300
C659        C  0.23417065  0.75356198  0.34196454    -0.12800
C660        C  0.23348193  0.75351087  0.29645526     0.00700
C661        C  0.28653482  0.73206618  0.36130919     0.40000
C662        C  0.21519793  0.76058847  0.27486213     0.36700
C663        C  0.23124194  0.69730564  0.21786785     0.36400
C664        C  0.27255023  0.80187866  0.13926083     0.37200
N665        N  0.30155812  0.72653555  0.37765963    -0.43600
N666        N  0.20057732  0.76627572  0.25750512    -0.44100
N667        N  0.28123807  0.82324157  0.12363251    -0.41400
N668        N  0.22204731  0.67583029  0.23327620    -0.42900
H669        H  0.23678961  0.70808637  0.13333517     0.13300
H670        H  0.26794198  0.79120647  0.22375256     0.09800
H671        H  0.28012812  0.73361108  0.27672646     0.10800
H672        H  0.22106962  0.75907881  0.35962574     0.16600
C673        C  0.22177522  0.48209409  0.79776200    -0.01600
C674        C  0.24636266  0.49754114  0.77466617     0.07000
C675        C  0.27063628  0.01325522  0.79780329    -0.07500
C676        C  0.27085483  0.01367566  0.84334636     0.04500
C677        C  0.24630178  0.99802377  0.86651996    -0.14800
C678        C  0.22202902  0.48219801  0.84335829    -0.08100
C679        C  0.24720789  0.49771333  0.72645993     0.05400
C680        C  0.25275239  0.02158566  0.70444629    -0.09200
C681        C  0.25413888  0.02284308  0.65893120     0.00400
C682        C  0.25050774  0.99993693  0.63472960     0.00300
C683        C  0.24473948  0.47598648  0.65709835    -0.12800
C684        C  0.24293196  0.47467032  0.70252705     0.00700
C685        C  0.25804400  0.04746183  0.63825815     0.40000
C686        C  0.23694203  0.44954441  0.72386785     0.36700
C687        C  0.19602010  0.46677291  0.77529493     0.36400
C688        C  0.29666816  0.02939919  0.86553277     0.37200
N689        N  0.26096637  0.06717785  0.62193503    -0.43600
N690        N  0.23194508  0.42932142  0.74086897    -0.44100
N691        N  0.31736107  0.04191611  0.88331131    -0.41400
N692        N  0.17541865  0.45463831  0.75712676    -0.42900
H693        H  0.20307716  0.47028984  0.86101210     0.13300
H694        H  0.28958161  0.02505045  0.78007616     0.09800
H695        H  0.25568199  0.03920516  0.72287433     0.10800
H696        H  0.24174059  0.45817627  0.63920329     0.16600
C697        C  0.27571543  0.51744100  0.29796921    -0.01600
C698        C  0.25149625  0.50018858  0.27488170     0.07000
C699        C  0.22776803  0.98275481  0.29815933    -0.07500
C700        C  0.22779515  0.98217597  0.34368257     0.04500
C701        C  0.25211858  0.99919432  0.36678140    -0.14800
C702        C  0.27573637  0.51692979  0.34350525    -0.08100
C703        C  0.25038897  0.49987090  0.22663296     0.05400
C704        C  0.24412862  0.97571212  0.20485290    -0.09200
C705        C  0.24253174  0.97419981  0.15937146     0.00400
C706        C  0.24731057  0.99739025  0.13476404     0.00300
C707        C  0.25307876  0.52145326  0.15700376    -0.12800
C708        C  0.25440361  0.52275353  0.20247956     0.00700
C709        C  0.23651911  0.94870595  0.13930694     0.40000
C710        C  0.25911162  0.54751780  0.22366285     0.36700
C711        C  0.30090616  0.53540318  0.27572189     0.36400
C712        C  0.20230224  0.96503070  0.36584781     0.37200
N713        N  0.23165393  0.92819602  0.12348420    -0.43600
N714        N  0.26293550  0.56736416  0.24069321    -0.44100
N715        N  0.18184595  0.95144847  0.38360936    -0.41400
N716        N  0.32108573  0.54992412  0.25796585    -0.42900
H717        H  0.29444195  0.53016651  0.36105037     0.13300
H718        H  0.20900815  0.96979215  0.28053934     0.09800
H719        H  0.24061217  0.95795486  0.22348653     0.10800
H720        H  0.25620893  0.53926241  0.13896966     0.16600
C721        C  0.08543514  0.58534426  0.46475833    -0.01600
C722        C  0.10033078  0.59923885  0.50223012     0.07000
C723        C  0.09052065  0.58787921  0.54341747    -0.07500
C724        C  0.06643497  0.56271168  0.54761931     0.04500
C725        C  0.05172146  0.54867897  0.51013573    -0.14800
C726        C  0.06122796  0.56029753  0.46899695    -0.08100
C727        C  0.12621177  0.62565864  0.49937491     0.05400
C728        C  0.12655328  0.64952132  0.51250525    -0.09200
C729        C  0.15079393  0.67480620  0.51189141     0.00400
C730        C  0.17548091  0.67640144  0.49834425     0.00300
C731        C  0.17489925  0.65232220  0.48505557    -0.12800
C732        C  0.15058126  0.62715663  0.48528904     0.00700
C733        C  0.14967874  0.69844068  0.52667937     0.40000
C734        C  0.15119246  0.60305766  0.47164241     0.36700
C735        C  0.09450462  0.59650964  0.42178656     0.36400
C736        C  0.05698739  0.55188007  0.59062417     0.37200
N737        N  0.14869526  0.71734223  0.53848321    -0.43600
N738        N  0.15167011  0.58377463  0.46051929    -0.44100
N739        N  0.04934783  0.54338369  0.62518797    -0.41400
N740        N  0.10179482  0.60541965  0.38731385    -0.42900
H741        H  0.04977713  0.54961632  0.44016220     0.13300
H742        H  0.10185347  0.59863874  0.57229657     0.09800
H743        H  0.10778133  0.64831743  0.52350932     0.10800
H744        H  0.19351570  0.65309927  0.47434223     0.16600
C745        C  0.41034560  0.91034553  0.54918529    -0.01600
C746        C  0.40254670  0.89358534  0.51193939     0.07000
C747        C  0.41943939  0.90205933  0.47518533    -0.07500
C748        C  0.44384005  0.92711369  0.47499959     0.04500
C749        C  0.45190658  0.94373717  0.51252240    -0.14800
C750        C  0.43489916  0.93521631  0.54921988    -0.08100
C751        C  0.37591833  0.86804079  0.50958226     0.05400
C752        C  0.35236237  0.86985157  0.50406505    -0.09200
C753        C  0.32665139  0.84636074  0.50089565     0.00400
C754        C  0.32416218  0.82015218  0.50349943     0.00300
C755        C  0.34809934  0.81861474  0.50907968    -0.12800
C756        C  0.37379414  0.84224581  0.51203205     0.00700
C757        C  0.30351707  0.85019732  0.49463038     0.40000
C758        C  0.39768070  0.83964303  0.51832315     0.36700
C759        C  0.39347019  0.90235955  0.58764242     0.36400
C760        C  0.45953645  0.93592813  0.43533856     0.37200
N761        N  0.28513313  0.85352638  0.48956076    -0.43600
N762        N  0.41686738  0.83766167  0.52347588    -0.44100
N763        N  0.47204738  0.94298975  0.40345990    -0.41400
N764        N  0.37990993  0.89591844  0.61843626    -0.42900
H765        H  0.44086606  0.94808591  0.57792239     0.13300
H766        H  0.41313257  0.88939549  0.44621357     0.09800
H767        H  0.35415482  0.88982613  0.50195404     0.10800
H768        H  0.34684608  0.79890902  0.51137999     0.16600
C769        C  0.09420013  0.50755686  0.46853772    -0.01600
C770        C  0.10588823  0.00255423  0.50538644     0.07000
C771        C  0.09201774  0.99616681  0.54522375    -0.07500
C772        C  0.06656194  0.99447620  0.54865456     0.04500
C773        C  0.05466267  0.99910393  0.51166154    -0.14800
C774        C  0.06871082  0.50573582  0.47186472    -0.08100
C775        C  0.13209275  0.00285353  0.50253934     0.05400
C776        C  0.15635956  0.52685451  0.51199248    -0.09200
C777        C  0.18151908  0.52771247  0.51013227     0.00400
C778        C  0.18250474  0.00391703  0.49922686     0.00300
C779        C  0.15792730  0.98005792  0.48851633    -0.12800
C780        C  0.13293565  0.97941889  0.48993234     0.00700
C781        C  0.20575915  0.55324853  0.52046490     0.40000
C782        C  0.10832788  0.95443923  0.47860212     0.36700
C783        C  0.10808262  0.51452392  0.42714863     0.36400
C784        C  0.05323944  0.98826826  0.59046416     0.37200
N785        N  0.22512765  0.57381088  0.52857651    -0.43600
N786        N  0.08859913  0.93445123  0.46949057    -0.44100
N787        N  0.04281440  0.98340161  0.62421927    -0.41400
N788        N  0.11934523  0.52016913  0.39407618    -0.42900
H789        H  0.05960922  0.50926359  0.44333194     0.13300
H790        H  0.10105459  0.99234244  0.57356554     0.09800
H791        H  0.15564303  0.54500053  0.52105995     0.10800
H792        H  0.15813340  0.96171771  0.47901671     0.16600
C793        C  0.40949636  0.98578730  0.47093167    -0.01600
C794        C  0.39937432  0.99301150  0.50735591     0.07000
C795        C  0.41394928  0.49966927  0.54655853    -0.07500
C796        C  0.43871030  0.49978832  0.54962429     0.04500
C797        C  0.44946072  0.99367516  0.51272959    -0.14800
C798        C  0.43442583  0.98625433  0.47380071    -0.08100
C799        C  0.37361364  0.49384749  0.50498498     0.05400
C800        C  0.34884182  0.97012669  0.51409832    -0.09200
C801        C  0.32409803  0.97018919  0.51281093     0.00400
C802        C  0.32394032  0.99462863  0.50291344     0.00300
C803        C  0.34900669  0.51829216  0.49332211    -0.12800
C804        C  0.37359885  0.51796592  0.49396134     0.00700
C805        C  0.29943737  0.94485693  0.52227685     0.40000
C806        C  0.39856795  0.54243252  0.48225344     0.36700
C807        C  0.39464413  0.97795941  0.43034816     0.36400
C808        C  0.45244330  0.50557660  0.59116220     0.37200
N809        N  0.27972897  0.92445830  0.52968783    -0.43600
N810        N  0.41857406  0.56189829  0.47239283    -0.44100
N811        N  0.46340564  0.51006082  0.62449887    -0.41400
N812        N  0.38263445  0.97160816  0.39789559    -0.42900
H813        H  0.44232275  0.98101632  0.44554632     0.13300
H814        H  0.40592423  0.50473097  0.57485298     0.09800
H815        H  0.34887243  0.95147991  0.52214741     0.10800
H816        H  0.34946132  0.53711426  0.48489815     0.16600
C817        C  0.12959006  0.65485404  0.02411047    -0.01600
C818        C  0.12668081  0.63198515  0.00123091     0.07000
C819        C  0.14873569  0.63403179  0.97764805    -0.07500
C820        C  0.17378278  0.65840075  0.97700098     0.04500
C821        C  0.17688672  0.68154106  0.99979182    -0.14800
C822        C  0.15450075  0.67948486  0.02289446    -0.08100
C823        C  0.10059100  0.60581244  0.00064960     0.05400
C824        C  0.08469694  0.59825027  0.96270469    -0.09200
C825        C  0.05993758  0.57359540  0.96067393     0.00400
C826        C  0.05055819  0.55638277  0.99745210     0.00300
C827        C  0.06665991  0.56390712  0.03524681    -0.12800
C828        C  0.09172647  0.58821690  0.03687654     0.00700
C829        C  0.04493063  0.56616058  0.92023736     0.40000
C830        C  0.10842145  0.59425836  0.07538721     0.36700
C831        C  0.10721744  0.65340570  0.04881730     0.36400
C832        C  0.19562780  0.65914676  0.95170088     0.37200
N833        N  0.03302912  0.56033704  0.88767482    -0.43600
N834        N  0.12188903  0.59894073  0.10612511    -0.44100
N835        N  0.21318105  0.65974703  0.93157414    -0.41400
N836        N  0.08921253  0.65199606  0.06870589    -0.42900
H837        H  0.15658216  0.69699241  0.04062174     0.13300
H838        H  0.14633270  0.61645989  0.95972954     0.09800
H839        H  0.09177839  0.61159606  0.93456012     0.10800
H840        H  0.05967709  0.55062708  0.06343404     0.16600
C841        C  0.34754970  0.87611985  0.98748731    -0.01600
C842        C  0.37292836  0.87733599  0.99032408     0.07000
C843        C  0.37377454  0.85316649  0.99462427    -0.07500
C844        C  0.34970787  0.82779043  0.99633752     0.04500
C845        C  0.32395818  0.82639567  0.99455976    -0.14800
C846        C  0.32342456  0.85088199  0.98985216    -0.08100
C847        C  0.39885978  0.90370885  0.99091016     0.05400
C848        C  0.41299132  0.91287778  0.03042514    -0.09200
C849        C  0.43748177  0.93776017  0.03275882     0.00400
C850        C  0.44827159  0.95367749  0.99495449     0.00300
C851        C  0.43412537  0.94452592  0.95540785    -0.12800
C852        C  0.40954197  0.91968703  0.95310801     0.00700
C853        C  0.45102596  0.94664177  0.07430492     0.40000
C854        C  0.39583956  0.91080774  0.91164847     0.36700
C855        C  0.34579162  0.90055081  0.98254421     0.36400
C856        C  0.35246218  0.80385281  0.00007874     0.37200
N857        N  0.46185089  0.95367120  0.10767151    -0.43600
N858        N  0.38482872  0.90369714  0.87843053    -0.44100
N859        N  0.35493646  0.78481636  0.00288308    -0.41400
N860        N  0.34441441  0.92012111  0.97816388    -0.42900
H861        H  0.30408854  0.85043899  0.98791533     0.13300
H862        H  0.39339992  0.85418718  0.99668423     0.09800
H863        H  0.40471135  0.90063644  0.05954015     0.10800
H864        H  0.44239387  0.95677545  0.92632524     0.16600
C865        C  0.08561154  0.00217879  0.03793542    -0.01600
C866        C  0.09938878  0.00335294  0.99909836     0.07000
C867        C  0.08886267  0.50601913  0.95915746    -0.07500
C868        C  0.06465063  0.50698739  0.95750889     0.04500
C869        C  0.05060643  0.50520849  0.99629701    -0.14800
C870        C  0.06134289  0.00297428  0.03623068    -0.08100
C871        C  0.12505940  0.50233117  0.99953658     0.05400
C872        C  0.12414967  0.97817529  0.01356317    -0.09200
C873        C  0.14788694  0.97627288  0.01479537     0.00400
C874        C  0.17322622  0.49886654  0.00116143     0.00300
C875        C  0.17382519  0.52286829  0.98726243    -0.12800
C876        C  0.15010905  0.52474801  0.98641528     0.00700
C877        C  0.14569157  0.95144321  0.03165965     0.40000
C878        C  0.15206788  0.55012203  0.97300077     0.36700
C879        C  0.09637928  0.00086917  0.07990604     0.36400
C880        C  0.05461979  0.50972662  0.91573279     0.37200
N881        N  0.14381034  0.93153712  0.04541393    -0.43600
N882        N  0.15357310  0.57043311  0.96231881    -0.44100
N883        N  0.04680988  0.51197823  0.88203659    -0.41400
N884        N  0.10509940  0.99990858  0.11352256    -0.42900
H885        H  0.05074078  0.00197141  0.06613862     0.13300
H886        H  0.09949172  0.50709836  0.92923656     0.09800
H887        H  0.10486620  0.96093720  0.02384655     0.10800
H888        H  0.19289544  0.54030557  0.97682806     0.16600
C889        C  0.36801611  0.52436297  0.98498810    -0.01600
C890        C  0.37079771  0.00236064  0.99976018     0.07000
C891        C  0.34791432  0.97902736  0.01619909    -0.07500
C892        C  0.32216019  0.97688921  0.01653182     0.04500
C893        C  0.31908092  0.49862910  0.00035932    -0.14800
C894        C  0.34235523  0.52233337  0.98523086    -0.08100
C895        C  0.39745072  0.00331108  0.99871014     0.05400
C896        C  0.41025589  0.50390955  0.03811453    -0.09200
C897        C  0.43537692  0.50471325  0.03847926     0.00400
C898        C  0.44786029  0.00456892  0.99885881     0.00300
C899        C  0.43496424  0.00380304  0.95945837    -0.12800
C900        C  0.40995275  0.00320205  0.95908665     0.00700
C901        C  0.44786706  0.50574110  0.07989569     0.40000
C902        C  0.39725459  0.00201246  0.91774404     0.36700
C903        C  0.39136971  0.54953131  0.97058935     0.36400
C904        C  0.29965787  0.95260799  0.03511570     0.37200
N905        N  0.45755273  0.50660174  0.11346633    -0.43600
N906        N  0.38706351  0.00118339  0.88466929    -0.44100
N907        N  0.28172686  0.93312868  0.05016195    -0.41400
N908        N  0.41012972  0.56969409  0.95919210    -0.42900
H909        H  0.34055942  0.53941932  0.97342652     0.13300
H910        H  0.35022951  0.96242392  0.02885448     0.09800
H911        H  0.40067988  0.50398053  0.06861122     0.10800
H912        H  0.44446393  0.00359184  0.92897066     0.16600
C913        C  0.00377441  0.58630076  0.54720066    -0.01600
C914        C  0.99816017  0.59522042  0.50763575     0.07000
C915        C  0.49385974  0.57968956  0.46982853    -0.07500
C916        C  0.49461426  0.55536156  0.47107643     0.04500
C917        C  0.49953651  0.54611968  0.51080684    -0.14800
C918        C  0.00425689  0.56182606  0.54847060    -0.08100
C919        C  0.99755437  0.62109380  0.50448151     0.05400
C920        C  0.01734863  0.64240297  0.47911749    -0.09200
C921        C  0.01755425  0.66713860  0.47489334     0.00400
C922        C  0.49745786  0.67080398  0.49618301     0.00300
C923        C  0.47723780  0.64914622  0.52067090    -0.12800
C924        C  0.47723438  0.62450548  0.52517559     0.00700
C925        C  0.03813006  0.68802689  0.44748053     0.40000
C926        C  0.45608143  0.60295800  0.55089677     0.36700
C927        C  0.00989423  0.60229116  0.58652186     0.36400
C928        C  0.49093769  0.54052026  0.43110068     0.37200
N929        N  0.05459600  0.70472139  0.42543715    -0.43600
N930        N  0.43921972  0.58569776  0.57165008    -0.44100
N931        N  0.48807107  0.52862671  0.39906375    -0.41400
N932        N  0.01479939  0.61508661  0.61806907    -0.42900
H933        H  0.00848393  0.55499756  0.57892761     0.13300
H934        H  0.48996649  0.58667160  0.43919888     0.09800
H935        H  0.03278183  0.63970144  0.46268991     0.10800
H936        H  0.46170844  0.65166366  0.53713018     0.16600
C937        C  0.48466192  0.84832713  0.47427013    -0.01600
C938        C  0.50299383  0.86915141  0.50254378     0.07000
C939        C  0.01981198  0.86411179  0.52977483    -0.07500
C940        C  0.01907184  0.83901245  0.52865736     0.04500
C941        C  0.50108351  0.81830084  0.49995649    -0.14800
C942        C  0.48373722  0.82310778  0.47336457    -0.08100
C943        C  0.50419237  0.89593601  0.50547826     0.05400
C944        C  0.49538408  0.90252893  0.54383596    -0.09200
C945        C  0.49558182  0.92727452  0.54781556     0.00400
C946        C  0.50466129  0.94597390  0.51281656     0.00300
C947        C  0.01429788  0.93965981  0.47493870    -0.12800
C948        C  0.01410070  0.91490248  0.47102264     0.00700
C949        C  0.48665327  0.93304600  0.58834156     0.40000
C950        C  0.02436995  0.90947000  0.43156349     0.36700
C951        C  0.46635936  0.85225669  0.44640299     0.36400
C952        C  0.03613906  0.83465379  0.55876894     0.37200
N953        N  0.47945934  0.93744784  0.62101917    -0.43600
N954        N  0.03255865  0.90500843  0.39998109    -0.44100
N955        N  0.04970420  0.83110119  0.58303838    -0.41400
N956        N  0.45177405  0.85548503  0.42398780    -0.42900
H957        H  0.46967848  0.80724907  0.45142855     0.13300
H958        H  0.03359773  0.87990155  0.55206441     0.09800
H959        H  0.48807856  0.88812397  0.57064440     0.10800
H960        H  0.02148534  0.95392230  0.44797016     0.16600
C961        C  0.00952011  0.73183396  0.69783176    -0.01600
C962        C  0.99665796  0.74405086  0.72035590     0.07000
C963        C  0.48446527  0.75633399  0.69672992    -0.07500
C964        C  0.48497128  0.75661219  0.65122002     0.04500
C965        C  0.49787194  0.74445510  0.62877650    -0.14800
C966        C  0.01019620  0.73229292  0.65226266    -0.08100
C967        C  0.99723542  0.74588688  0.76853838     0.05400
C968        C  0.02244552  0.76137217  0.78937410    -0.09200
C969        C  0.02414010  0.76476752  0.83458929     0.00400
C970        C  0.50002749  0.75234020  0.86025440     0.00300
C971        C  0.47473057  0.73682220  0.83896593    -0.12800
C972        C  0.47316047  0.73359450  0.79366581     0.00700
C973        C  0.05098258  0.78142809  0.85312407     0.40000
C974        C  0.44669967  0.71722567  0.77368805     0.36700
C975        C  0.02163203  0.71825213  0.72076282     0.36400
C976        C  0.47342464  0.77073903  0.62825699     0.37200
N977        N  0.07258451  0.79484636  0.86764947    -0.43600
N978        N  0.42548664  0.70414397  0.75769474    -0.44100
N979        N  0.46438433  0.78221105  0.60974814    -0.41400
N980        N  0.03128574  0.70730443  0.73911243    -0.42900
H981        H  0.01997448  0.72278671  0.63500786     0.13300
H982        H  0.47507296  0.76624948  0.71390743     0.09800
H983        H  0.04093725  0.77117936  0.77000858     0.10800
H984        H  0.45599897  0.72696959  0.85768178     0.16600
C985        C  0.02482793  0.76349268  0.29346403    -0.01600
C986        C  0.50074045  0.74979253  0.26855505     0.07000
C987        C  0.47583866  0.73346860  0.28980588    -0.07500
C988        C  0.47446542  0.73112570  0.33522604     0.04500
C989        C  0.49856892  0.74544676  0.36061736    -0.14800
C990        C  0.02355126  0.76127941  0.33888337    -0.08100
C991        C  0.50104660  0.75179062  0.22024475     0.05400
C992        C  0.01671430  0.74357276  0.19609533    -0.09200
C993        C  0.01745459  0.74500170  0.15061004     0.00400
C994        C  0.50185233  0.75430189  0.12845801     0.00300
C995        C  0.48577298  0.76206599  0.15236018    -0.12800
C996        C  0.48549982  0.76120791  0.19791222     0.00700
C997        C  0.03346024  0.73569088  0.12744045     0.40000
C998        C  0.46973002  0.77083209  0.22095273     0.36700
C999        C  0.05110999  0.78036850  0.27337859     0.36400
C1000       C  0.44799142  0.71353444  0.35423982     0.37200
N1001       N  0.04624089  0.72818895  0.10885909    -0.43600
N1002       N  0.45709896  0.77859211  0.23931912    -0.44100
N1003       N  0.42670011  0.69935371  0.36917207    -0.41400
N1004       N  0.07220720  0.79373845  0.25730180    -0.42900
H1005       H  0.04230170  0.77229878  0.35743025     0.13300
H1006       H  0.45732715  0.72235113  0.27067574     0.09800
H1007       H  0.02824754  0.73577463  0.21292094     0.10800
H1008       H  0.47379253  0.76930257  0.13539107     0.16600
C1009       C  0.02283474  0.65654809  0.97799221    -0.01600
C1010       C  0.00131309  0.63302832  0.99722981     0.07000
C1011       C  0.47974801  0.63441134  0.01682604    -0.07500
C1012       C  0.47906735  0.65877568  0.01694315     0.04500
C1013       C  0.00043649  0.68245198  0.99711861    -0.14800
C1014       C  0.02231372  0.68102370  0.97822056    -0.08100
C1015       C  0.00069924  0.60661751  0.99714210     0.05400
C1016       C  0.00692803  0.59755227  0.03561960    -0.09200
C1017       C  0.00619358  0.57247572  0.03687407     0.00400
C1018       C  0.99897348  0.55607826  0.99916655     0.00300
C1019       C  0.49213028  0.56491462  0.96102360    -0.12800
C1020       C  0.49314819  0.59007775  0.95960392     0.00700
C1021       C  0.01264620  0.56388791  0.07720386     0.40000
C1022       C  0.48634010  0.59851799  0.91942976     0.36700
C1023       C  0.04564121  0.65598929  0.95806634     0.36400
C1024       C  0.45660410  0.65893185  0.03885540     0.37200
N1025       N  0.01786962  0.55707497  0.10958122    -0.43600
N1026       N  0.48097497  0.60531381  0.88716743    -0.44100
N1027       N  0.43856306  0.65893976  0.05649382    -0.41400
N1028       N  0.06387595  0.65547603  0.94208780    -0.42900
H1029       H  0.03890337  0.69897422  0.96306746     0.13300
H1030       H  0.46333465  0.61630643  0.03198456     0.09800
H1031       H  0.01245519  0.61015791  0.06461178     0.10800
H1032       H  0.48641996  0.55228590  0.93207351     0.16600
C1033       C  0.50599521  0.92032432  0.03480845    -0.01600
C1034       C  0.50241986  0.90559325  0.99604087     0.07000
C1035       C  0.99766057  0.91530316  0.95687183    -0.07500
C1036       C  0.99633172  0.93935858  0.95603786     0.04500
C1037       C  0.49980950  0.95401812  0.99487752    -0.14800
C1038       C  0.50467703  0.94433690  0.03393794    -0.08100
C1039       C  0.50267440  0.87953366  0.99598041     0.05400
C1040       C  0.48032293  0.85626551  0.01357375    -0.09200
C1041       C  0.47944862  0.83110640  0.01391641     0.00400
C1042       C  0.50134700  0.82888500  0.99612152     0.00300
C1043       C  0.02392670  0.85246523  0.97910885    -0.12800
C1044       C  0.02469118  0.87761867  0.97883262     0.00700
C1045       C  0.45621899  0.80829369  0.03419827     0.40000
C1046       C  0.04844238  0.90133027  0.96151116     0.36700
C1047       C  0.51149978  0.91141861  0.07566445     0.36400
C1048       C  0.99152034  0.94867145  0.91504121     0.37200
N1049       N  0.43758005  0.79011941  0.05060523    -0.43600
N1050       N  0.06745831  0.92039109  0.94773302    -0.44100
N1051       N  0.98755610  0.95604780  0.88215106    -0.41400
N1052       N  0.51595670  0.90431133  0.10841507    -0.42900
H1053       H  0.50762197  0.95569950  0.06377123     0.13300
H1054       H  0.99483474  0.90396319  0.92702443     0.09800
H1055       H  0.46348520  0.85782780  0.02718699     0.10800
H1056       H  0.04097269  0.85124726  0.96562717     0.16600
O1057       O  0.97828415  0.20899021  0.99624101    -0.72500
O1058       O  0.97868517  0.27999834  0.99429525    -0.73500
O1059       O  0.97808683  0.24355272  0.92965347    -0.62100
O1060       O  0.97886691  0.24517305  0.06029434    -0.70500
O1061       O  0.52421680  0.26669962  0.05958586    -0.70100
O1062       O  0.52322256  0.26638018  0.92926327    -0.61300
O1063       O  0.52395228  0.30257453  0.99455108    -0.73800
O1064       O  0.52350003  0.23124622  0.99442780    -0.72600
Cu1065     Cu  0.97691752  0.24371323  0.99506509     1.04600
Cu1066     Cu  0.52529767  0.26759554  0.99437713     1.04300
C1067       C  0.50076525  0.20881567  0.99599686     0.93700
C1068       C  0.50137255  0.30260502  0.99497140     0.92800
C1069       C  0.50058020  0.25440806  0.90866412     0.85000
C1070       C  0.50171604  0.25560443  0.08050951     0.91300
O1071       O  0.97553105  0.19757111  0.49585105    -0.72500
O1072       O  0.97727170  0.26970979  0.49448234    -0.73500
O1073       O  0.97625442  0.23332728  0.42989165    -0.62100
O1074       O  0.97611135  0.23406441  0.55993496    -0.70500
O1075       O  0.52125562  0.25402429  0.56081743    -0.70100
O1076       O  0.52132831  0.25615944  0.42998081    -0.61300
O1077       O  0.52243436  0.29107835  0.49780136    -0.73800
O1078       O  0.52064232  0.21952908  0.49361484    -0.72600
Cu1079     Cu  0.97470652  0.23286203  0.49495300     1.04600
Cu1080     Cu  0.52298731  0.25595003  0.49546198     1.04300
C1081       C  0.99796420  0.19724979  0.49472047     0.93700
C1082       C  0.00028998  0.29180340  0.49710746     0.92800
C1083       C  0.99875120  0.24485087  0.40902322     0.85000
C1084       C  0.99860549  0.24415878  0.58080780     0.91300
C1085       C  0.97445336  0.47999933  0.99589707     0.02700
C1086       C  0.99948066  0.48016437  0.99540567     0.02700
C1087       C  0.52433179  0.00516549  0.99610282     0.02700
C1088       C  0.52424341  0.03006230  0.99703639     0.02700
C1089       C  0.49917717  0.02989867  0.99820792     0.02700
C1090       C  0.97426490  0.50483741  0.99761981     0.02700
C1091       C  0.52627451  0.02172790  0.51314261     0.02700
C1092       C  0.52759683  0.49746422  0.51360876     0.02700
C1093       C  0.00330076  0.47172495  0.51411925     0.02700
C1094       C  0.97765706  0.47053029  0.51377275     0.02700
C1095       C  0.97637129  0.49487115  0.51387536     0.02700
C1096       C  0.00076091  0.02046882  0.51334881     0.02700
O1097       O  0.73369818  0.47533681  0.93477555    -0.72500
O1098       O  0.73488956  0.47493830  0.06524571    -0.73500
O1099       O  0.69889109  0.47544080  0.00116579    -0.62100
O1100       O  0.76994988  0.47525298  0.99926466    -0.70500
O1101       O  0.79238349  0.02040017  0.00057309    -0.70100
O1102       O  0.72180273  0.02046281  0.00046963    -0.61300
O1103       O  0.75710564  0.02004305  0.06578513    -0.73800
O1104       O  0.75737753  0.02047202  0.93522420    -0.72600
Cu1105     Cu  0.73352661  0.47364376  0.00006780     1.04600
Cu1106     Cu  0.75788985  0.02188622  0.00050877     1.04300
C1107       C  0.74569744  0.99787083  0.91446599     0.93700
C1108       C  0.74633224  0.99735750  0.08632044     0.92800
C1109       C  0.69908457  0.99799506  0.00110763     0.85000
C1110       C  0.79247226  0.99789407  0.00014986     0.91300
O1111       O  0.80001044  0.01967684  0.50186898    -0.72500
O1112       O  0.73146720  0.02453993  0.49869965    -0.73500
O1113       O  0.76485603  0.02246644  0.56555555    -0.62100
O1114       O  0.76636550  0.02191931  0.43506391    -0.70500
O1115       O  0.74059519  0.47672212  0.43555955    -0.70100
O1116       O  0.74048999  0.47737809  0.56582456    -0.61300
O1117       O  0.70670786  0.47943135  0.50000961    -0.73800
O1118       O  0.77502569  0.47465289  0.50130369    -0.72600
Cu1119     Cu  0.76660881  0.02373142  0.50027219     1.04600
Cu1120     Cu  0.73992554  0.47549992  0.50067813     1.04300
C1121       C  0.79842127  0.49635124  0.50195348     0.93700
C1122       C  0.70814632  0.50268767  0.49924193     0.92800
C1123       C  0.75211960  0.50006186  0.58638027     0.85000
C1124       C  0.75304818  0.49921845  0.41470734     0.91300
O1125       O  0.70323389  0.23038774  0.00339975    -0.72500
O1126       O  0.77513033  0.30067113  0.99875399    -0.73500
O1127       O  0.73648219  0.26570474  0.93606169    -0.62100
O1128       O  0.74176317  0.26551474  0.06628787    -0.70500
O1129       O  0.76221293  0.24084425  0.06203811    -0.70100
O1130       O  0.75989688  0.24396200  0.93198746    -0.61300
O1131       O  0.79691921  0.27740150  0.99668041    -0.73800
O1132       O  0.72545307  0.20761839  0.99678869    -0.72600
Cu1133     Cu  0.73839500  0.26642023  0.00136738     1.04600
Cu1134     Cu  0.76186827  0.24166655  0.99677194     1.04300
C1135       C  0.70306546  0.20779292  0.99994727     0.93700
C1136       C  0.79747811  0.30022109  0.99684551     0.92800
C1137       C  0.74764189  0.25502434  0.91346643     0.85000
C1138       C  0.75243884  0.25284742  0.08467725     0.91300
O1139       O  0.75884073  0.23714319  0.56604006    -0.72500
O1140       O  0.76165763  0.23586838  0.43554321    -0.73500
O1141       O  0.79646868  0.27137760  0.50200410    -0.62100
O1142       O  0.72424656  0.20170553  0.49991367    -0.70500
O1143       O  0.70284596  0.22537552  0.49664498    -0.70100
O1144       O  0.77504829  0.29495897  0.49883424    -0.61300
O1145       O  0.74031879  0.25956399  0.43240586    -0.73800
O1146       O  0.73740416  0.26076075  0.56273829    -0.72600
Cu1147     Cu  0.76105949  0.23571632  0.50096368     1.04600
Cu1148     Cu  0.73820107  0.26100656  0.49746740     1.04300
C1149       C  0.74755274  0.24897756  0.58516052     0.93700
C1150       C  0.75125767  0.24741774  0.41314855     0.92800
C1151       C  0.79726034  0.29434191  0.50114957     0.85000
C1152       C  0.70206531  0.20244624  0.49826690     0.91300
C1153       C  0.74118112  0.27079662  0.69922016    -0.01600
C1154       C  0.74621259  0.25332549  0.72536416     0.07000
C1155       C  0.75039093  0.23345893  0.70539353    -0.07500
C1156       C  0.75036273  0.23121021  0.66004364     0.04500
C1157       C  0.74647048  0.24946669  0.63352622    -0.14800
C1158       C  0.74151416  0.26887108  0.65380211    -0.08100
C1159       C  0.74709446  0.25519636  0.77360892     0.05400
C1160       C  0.72364355  0.25042082  0.79644294    -0.09200
C1161       C  0.72344457  0.25087892  0.84203610     0.00400
C1162       C  0.74693921  0.25569198  0.86546334     0.00300
C1163       C  0.77040798  0.26066944  0.84255829    -0.12800
C1164       C  0.77076269  0.26072493  0.79708659     0.00700
C1165       C  0.69853311  0.24511876  0.86380718     0.40000
C1166       C  0.79582649  0.26699395  0.77530635     0.36700
C1167       C  0.73608808  0.29114683  0.71823608     0.36400
C1168       C  0.75338086  0.20930648  0.64205136     0.37200
N1169       N  0.67852050  0.24049761  0.88110208    -0.43600
N1170       N  0.81597000  0.27207255  0.75800652    -0.44100
N1171       N  0.75562279  0.19161591  0.62776977    -0.41400
N1172       N  0.73178859  0.30727686  0.73359854    -0.42900
H1173       H  0.73820364  0.28287807  0.63418059     0.13300
H1174       H  0.75348931  0.21946922  0.72547252     0.09800
H1175       H  0.70530873  0.24588088  0.77856517     0.10800
H1176       H  0.78866322  0.26477727  0.86030407     0.16600
C1177       C  0.74249785  0.22408146  0.19833998    -0.01600
C1178       C  0.75116754  0.24763049  0.22415851     0.07000
C1179       C  0.76102696  0.27305883  0.20380538    -0.07500
C1180       C  0.76185802  0.27522874  0.15839964     0.04500
C1181       C  0.75302514  0.25167184  0.13258183    -0.14800
C1182       C  0.74375340  0.22631526  0.15287798    -0.08100
C1183       C  0.75019235  0.24636170  0.27243624     0.05400
C1184       C  0.76704701  0.23891364  0.29486637    -0.09200
C1185       C  0.76784006  0.23898474  0.34049082     0.00400
C1186       C  0.75135240  0.24659863  0.36464405     0.00300
C1187       C  0.73424134  0.25369845  0.34175720    -0.12800
C1188       C  0.73355472  0.25363679  0.29624754     0.00700
C1189       C  0.78642449  0.23196879  0.36114912     0.40000
C1190       C  0.71532257  0.26077805  0.27463897     0.36700
C1191       C  0.73117041  0.19733408  0.21767894     0.36400
C1192       C  0.77266681  0.30192539  0.13904849     0.37200
N1193       N  0.80139246  0.22636612  0.37750823    -0.43600
N1194       N  0.70074299  0.26651491  0.25726835    -0.44100
N1195       N  0.78139841  0.32329131  0.12341247    -0.41400
N1196       N  0.72194510  0.17585569  0.23308652    -0.42900
H1197       H  0.73670087  0.20810422  0.13314306     0.13300
H1198       H  0.76806183  0.29126293  0.22354376     0.09800
H1199       H  0.78004986  0.23353458  0.27656272     0.10800
H1200       H  0.72118105  0.25927535  0.35940266     0.16600
C1201       C  0.72163597  0.98206437  0.79783194    -0.01600
C1202       C  0.74623916  0.99743161  0.77473979     0.07000
C1203       C  0.77075593  0.51346889  0.79776183    -0.07500
C1204       C  0.77096095  0.51391604  0.84330661     0.04500
C1205       C  0.74641777  0.49819013  0.86647369    -0.14800
C1206       C  0.72189276  0.98214587  0.84342821    -0.08100
C1207       C  0.74707984  0.99761992  0.72653875     0.05400
C1208       C  0.75289974  0.52169351  0.70437048    -0.09200
C1209       C  0.75425499  0.52293016  0.65885281     0.00400
C1210       C  0.75060030  0.50001105  0.63466618     0.00300
C1211       C  0.74461609  0.97590773  0.65716879    -0.12800
C1212       C  0.74279850  0.97458070  0.70259602     0.00700
C1213       C  0.75813961  0.54753633  0.63816066     0.40000
C1214       C  0.73680761  0.94945449  0.72393704     0.36700
C1215       C  0.69587148  0.96682976  0.77535975     0.36400
C1216       C  0.79675427  0.52975554  0.86549859     0.37200
N1217       N  0.76104213  0.56723898  0.62181518    -0.43600
N1218       N  0.73181875  0.92923861  0.74095491    -0.44100
N1219       N  0.81743077  0.54237137  0.88328145    -0.41400
N1220       N  0.67526382  0.95475888  0.75718725    -0.42900
H1221       H  0.70292921  0.97031133  0.86108626     0.13300
H1222       H  0.78969498  0.52531712  0.78004251     0.09800
H1223       H  0.75583992  0.53932137  0.72278493     0.10800
H1224       H  0.74161451  0.95809946  0.63926509     0.16600
C1225       C  0.77592468  0.01714204  0.29804304    -0.01600
C1226       C  0.75158864  0.00022180  0.27497690     0.07000
C1227       C  0.72783131  0.48228490  0.29803901    -0.07500
C1228       C  0.72785068  0.48169587  0.34356171     0.04500
C1229       C  0.75203537  0.49911159  0.36670025    -0.14800
C1230       C  0.77594651  0.01665983  0.34358425    -0.08100
C1231       C  0.75047071  0.99988386  0.22672043     0.05400
C1232       C  0.74470549  0.47588836  0.20469810    -0.09200
C1233       C  0.74315416  0.47441427  0.15921322     0.00400
C1234       C  0.74732428  0.49742468  0.13469802     0.00300
C1235       C  0.75362202  0.02158282  0.15702459    -0.12800
C1236       C  0.75500257  0.02292251  0.20249696     0.00700
C1237       C  0.73786207  0.44917872  0.13902805     0.40000
C1238       C  0.76032808  0.04791671  0.22359574     0.36700
C1239       C  0.80122913  0.03470265  0.27576793     0.36400
C1240       C  0.70245528  0.46411025  0.36566493     0.37200
N1241       N  0.73357171  0.42887327  0.12311038    -0.43600
N1242       N  0.76466063  0.06795397  0.24054634    -0.44100
N1243       N  0.68206990  0.45017046  0.38336942    -0.41400
N1244       N  0.82150132  0.04889794  0.25798050    -0.42900
H1245       H  0.79473289  0.02964370  0.36112110     0.13300
H1246       H  0.70917891  0.46901267  0.28039056     0.09800
H1247       H  0.74166900  0.45827710  0.22327066     0.10800
H1248       H  0.75715501  0.03951931  0.13895480     0.16600
C1249       C  0.58541850  0.08538628  0.46489981    -0.01600
C1250       C  0.60036472  0.09924938  0.50234973     0.07000
C1251       C  0.59062020  0.08785294  0.54353813    -0.07500
C1252       C  0.56653828  0.06268208  0.54775867     0.04500
C1253       C  0.55177395  0.04867693  0.51029068    -0.14800
C1254       C  0.56122719  0.06032811  0.46915400    -0.08100
C1255       C  0.62623186  0.12567560  0.49945365     0.05400
C1256       C  0.62654922  0.14954575  0.51246149    -0.09200
C1257       C  0.65077295  0.17484431  0.51174153     0.00400
C1258       C  0.67546499  0.17644412  0.49820998     0.00300
C1259       C  0.67490417  0.15235523  0.48503997    -0.12800
C1260       C  0.65060352  0.12717666  0.48537936     0.00700
C1261       C  0.64963504  0.19848984  0.52639999     0.40000
C1262       C  0.65123237  0.10306861  0.47184327     0.36700
C1263       C  0.59441584  0.09660581  0.42193716     0.36400
C1264       C  0.55714066  0.05183136  0.59076962     0.37200
N1265       N  0.64863271  0.21739992  0.53809924    -0.43600
N1266       N  0.65172561  0.08377767  0.46081561    -0.44100
N1267       N  0.54954892  0.04332888  0.62534649    -0.41400
N1268       N  0.60164707  0.10556775  0.38747534    -0.42900
H1269       H  0.54974007  0.04966938  0.44033257     0.13300
H1270       H  0.60199347  0.09859216  0.57240106     0.09800
H1271       H  0.60777193  0.14833814  0.52344488     0.10800
H1272       H  0.69352387  0.15313375  0.47434159     0.16600
C1273       C  0.91033564  0.41034620  0.54914652    -0.01600
C1274       C  0.90252443  0.39359582  0.51188782     0.07000
C1275       C  0.91941183  0.40206994  0.47512626    -0.07500
C1276       C  0.94381564  0.42711866  0.47494329     0.04500
C1277       C  0.95189509  0.44372575  0.51248087    -0.14800
C1278       C  0.93490091  0.43520156  0.54919131    -0.08100
C1279       C  0.87588843  0.36806460  0.50952497     0.05400
C1280       C  0.85232432  0.36989829  0.50433351    -0.09200
C1281       C  0.82660382  0.34642171  0.50117350     0.00400
C1282       C  0.82411683  0.32020427  0.50342436     0.00300
C1283       C  0.84806177  0.31864457  0.50869043    -0.12800
C1284       C  0.87376338  0.34226102  0.51165493     0.00700
C1285       C  0.80345664  0.35028579  0.49533493     0.40000
C1286       C  0.89765501  0.33963038  0.51765000     0.36700
C1287       C  0.89345567  0.40237308  0.58759873     0.36400
C1288       C  0.95949962  0.43595203  0.43527128     0.37200
N1289       N  0.78506575  0.35364348  0.49061520    -0.43600
N1290       N  0.91684427  0.33762446  0.52257205    -0.44100
N1291       N  0.97200286  0.44303698  0.40338729    -0.41400
N1292       N  0.87988720  0.39594600  0.61838264    -0.42900
H1293       H  0.94088142  0.44806120  0.57790517     0.13300
H1294       H  0.91309345  0.38941635  0.44614304     0.09800
H1295       H  0.85411688  0.38988095  0.50248208     0.10800
H1296       H  0.84681115  0.29893127  0.51072829     0.16600
C1297       C  0.59422307  0.00757159  0.46858503    -0.01600
C1298       C  0.60585331  0.50253636  0.50545295     0.07000
C1299       C  0.59196732  0.49613029  0.54527674    -0.07500
C1300       C  0.56653470  0.49449060  0.54871079     0.04500
C1301       C  0.55466388  0.49916436  0.51172414    -0.14800
C1302       C  0.56872279  0.00572569  0.47192936    -0.08100
C1303       C  0.63204474  0.50281174  0.50260617     0.05400
C1304       C  0.65639812  0.02685455  0.51234827    -0.09200
C1305       C  0.68155512  0.02770586  0.51049455     0.00400
C1306       C  0.68245358  0.50386685  0.49923030     0.00300
C1307       C  0.65783754  0.47993160  0.48894694    -0.12800
C1308       C  0.63284737  0.47929650  0.49039261     0.00700
C1309       C  0.70577766  0.05316335  0.52123465     0.40000
C1310       C  0.60820389  0.45425022  0.47944865     0.36700
C1311       C  0.60809385  0.01453956  0.42718542     0.36400
C1312       C  0.55321173  0.48829540  0.59051994     0.37200
N1313       N  0.72513510  0.07366046  0.52967879    -0.43600
N1314       N  0.58844648  0.43421070  0.47063993    -0.44100
N1315       N  0.54279020  0.48344232  0.62427742    -0.41400
N1316       N  0.61934870  0.02018396  0.39410615    -0.42900
H1317       H  0.55960730  0.00924442  0.44340536     0.13300
H1318       H  0.60098010  0.49226531  0.57360934     0.09800
H1319       H  0.65566895  0.04495575  0.52167630     0.10800
H1320       H  0.65801026  0.46152927  0.47975124     0.16600
C1321       C  0.90952790  0.48592466  0.47083444    -0.01600
C1322       C  0.89936349  0.49303123  0.50733898     0.07000
C1323       C  0.91408312  0.99987788  0.54659237    -0.07500
C1324       C  0.93884680  0.99999961  0.54962538     0.04500
C1325       C  0.94942140  0.49364158  0.51265958    -0.14800
C1326       C  0.93443974  0.48635492  0.47368272    -0.08100
C1327       C  0.87363202  0.99386511  0.50514893     0.05400
C1328       C  0.84884889  0.47019007  0.51424976    -0.09200
C1329       C  0.82410758  0.47025373  0.51293690     0.00400
C1330       C  0.82394349  0.49466866  0.50286407     0.00300
C1331       C  0.84900979  0.01830199  0.49358956    -0.12800
C1332       C  0.87360781  0.01799050  0.49421648     0.00700
C1333       C  0.79945614  0.44494984  0.52257245     0.40000
C1334       C  0.89856988  0.04247706  0.48255432     0.36700
C1335       C  0.89473051  0.47824618  0.43019621     0.36400
C1336       C  0.95266143  0.00593165  0.59110308     0.37200
N1337       N  0.77975478  0.42457448  0.53012354    -0.43600
N1338       N  0.91856664  0.06196201  0.47272387    -0.44100
N1339       N  0.96368378  0.01053717  0.62439854    -0.41400
N1340       N  0.88276201  0.47201624  0.39770198    -0.42900
H1341       H  0.94236741  0.48120003  0.44537583     0.13300
H1342       H  0.90612987  0.00505870  0.57484773     0.09800
H1343       H  0.84888319  0.45156020  0.52241699     0.10800
H1344       H  0.84945928  0.03712910  0.48522156     0.16600
C1345       C  0.62948302  0.15495165  0.02370327    -0.01600
C1346       C  0.62662461  0.13203086  0.00105666     0.07000
C1347       C  0.64872568  0.13402757  0.97768576    -0.07500
C1348       C  0.67377017  0.15839784  0.97702113     0.04500
C1349       C  0.67683133  0.18159383  0.99958691    -0.14800
C1350       C  0.65439465  0.17958467  0.02247260    -0.08100
C1351       C  0.60054902  0.10584353  0.00051772     0.05400
C1352       C  0.58467221  0.09821271  0.96255166    -0.09200
C1353       C  0.55993885  0.07352923  0.96055025     0.00400
C1354       C  0.55057208  0.05635474  0.99737199     0.00300
C1355       C  0.56665948  0.06394343  0.03518414    -0.12800
C1356       C  0.59169654  0.08828763  0.03679365     0.00700
C1357       C  0.54493318  0.06603125  0.92011157     0.40000
C1358       C  0.60836967  0.09441349  0.07534708     0.36700
C1359       C  0.60706099  0.15354916  0.04820069     0.36400
C1360       C  0.69565904  0.15907325  0.95194558     0.37200
N1361       N  0.53302682  0.06015502  0.88755306    -0.43600
N1362       N  0.62181918  0.09916472  0.10612249    -0.44100
N1363       N  0.71324463  0.15961178  0.93199942    -0.41400
N1364       N  0.58901626  0.15217674  0.06792270    -0.42900
H1365       H  0.65643593  0.19712969  0.04002837     0.13300
H1366       H  0.64636186  0.11641212  0.95995069     0.09800
H1367       H  0.59174579  0.11152776  0.93437059     0.10800
H1368       H  0.55968201  0.05069652  0.06340982     0.16600
C1369       C  0.84763680  0.37609262  0.98681447    -0.01600
C1370       C  0.87299653  0.37729168  0.99000137     0.07000
C1371       C  0.87380193  0.35312179  0.99470122    -0.07500
C1372       C  0.84971480  0.32776514  0.99647695     0.04500
C1373       C  0.82398289  0.32639119  0.99433471    -0.14800
C1374       C  0.82348911  0.35087429  0.98922516    -0.08100
C1375       C  0.89893814  0.40365771  0.99064129     0.05400
C1376       C  0.91295037  0.41287861  0.03024390    -0.09200
C1377       C  0.93742490  0.43777143  0.03265342     0.00400
C1378       C  0.94829796  0.45367010  0.99485438     0.00300
C1379       C  0.93427722  0.44446599  0.95521674    -0.12800
C1380       C  0.90973494  0.41959072  0.95282289     0.00700
C1381       C  0.95088195  0.44666570  0.07426074     0.40000
C1382       C  0.89621399  0.41061337  0.91124564     0.36700
C1383       C  0.84592154  0.40052575  0.98149518     0.36400
C1384       C  0.85242762  0.30382664  0.00072350     0.37200
N1385       N  0.96163812  0.45369473  0.10767793    -0.43600
N1386       N  0.88536267  0.40342031  0.87792252    -0.44100
N1387       N  0.85486784  0.28478798  0.00393996    -0.41400
N1388       N  0.84458530  0.42009972  0.97682102    -0.42900
H1389       H  0.80416697  0.35044205  0.98700759     0.13300
H1390       H  0.89341104  0.35412841  0.99705554     0.09800
H1391       H  0.90459432  0.40066390  0.05936439     0.10800
H1392       H  0.94262013  0.45669584  0.92613408     0.16600
C1393       C  0.58565176  0.50224043  0.03806620    -0.01600
C1394       C  0.59949188  0.50353587  0.99923942     0.07000
C1395       C  0.58872080  0.00572863  0.95907054    -0.07500
C1396       C  0.56453669  0.00675255  0.95743330     0.04500
C1397       C  0.55059055  0.00515640  0.99625058    -0.14800
C1398       C  0.56136268  0.50299689  0.03635910    -0.08100
C1399       C  0.62496354  0.00213657  0.99946959     0.05400
C1400       C  0.62426395  0.47837171  0.01368839    -0.09200
C1401       C  0.64799774  0.47646590  0.01488725     0.00400
C1402       C  0.67312906  0.99867243  0.00116773     0.00300
C1403       C  0.67374757  0.02270693  0.98739982    -0.12800
C1404       C  0.65003168  0.02458377  0.98651173     0.00700
C1405       C  0.64581054  0.45164936  0.03179724     0.40000
C1406       C  0.65200468  0.04998394  0.97322297     0.36700
C1407       C  0.59636393  0.50082638  0.08003153     0.36400
C1408       C  0.55443748  0.00937340  0.91564529     0.37200
N1409       N  0.64393545  0.43175529  0.04559522    -0.43600
N1410       N  0.65352116  0.07031675  0.96264623    -0.44100
N1411       N  0.54656871  0.01153255  0.88194466    -0.41400
N1412       N  0.60503622  0.49977342  0.11364240    -0.42900
H1413       H  0.55071722  0.50191031  0.06625792     0.13300
H1414       H  0.59928504  0.00668277  0.92913634     0.09800
H1415       H  0.60498583  0.46113683  0.02399882     0.10800
H1416       H  0.69283358  0.04017452  0.97709735     0.16600
C1417       C  0.86798061  0.02432948  0.98479038    -0.01600
C1418       C  0.87079103  0.50233170  0.99985456     0.07000
C1419       C  0.84783457  0.47886872  0.01578507    -0.07500
C1420       C  0.82208524  0.47674157  0.01605986     0.04500
C1421       C  0.81906949  0.99860746  0.00034538    -0.14800
C1422       C  0.84231160  0.02228188  0.98505696    -0.08100
C1423       C  0.89743138  0.50326982  0.99878900     0.05400
C1424       C  0.91027421  0.00396431  0.03805011    -0.09200
C1425       C  0.93539050  0.00475927  0.03842307     0.00400
C1426       C  0.94783836  0.50453545  0.99887489     0.00300
C1427       C  0.93493305  0.50377746  0.95948690    -0.12800
C1428       C  0.90993777  0.50321009  0.95914904     0.00700
C1429       C  0.94786227  0.00575657  0.07984448     0.40000
C1430       C  0.89728128  0.50216474  0.91782699     0.36700
C1431       C  0.89130850  0.04947817  0.97026352     0.36400
C1432       C  0.79949093  0.45227884  0.03402663     0.37200
N1433       N  0.95752730  0.00658505  0.11342143    -0.43600
N1434       N  0.88712143  0.50146399  0.88477802    -0.44100
N1435       N  0.78148745  0.43264295  0.04855859    -0.41400
N1436       N  0.91004987  0.06962607  0.95877089    -0.42900
H1437       H  0.84048439  0.03933141  0.97315906     0.13300
H1438       H  0.85008630  0.46214918  0.02806257     0.09800
H1439       H  0.90070042  0.00404454  0.06854422     0.10800
H1440       H  0.94442859  0.50358152  0.92898637     0.16600
C1441       C  0.50391731  0.08640054  0.54715567    -0.01600
C1442       C  0.49823430  0.09525517  0.50758416     0.07000
C1443       C  0.99393211  0.07969212  0.46977515    -0.07500
C1444       C  0.99465578  0.05534783  0.47108447     0.04500
C1445       C  0.99963887  0.04615999  0.51081972    -0.14800
C1446       C  0.50440654  0.06192919  0.54849137    -0.08100
C1447       C  0.49761856  0.12112369  0.50437859     0.05400
C1448       C  0.51739565  0.14241766  0.47897011    -0.09200
C1449       C  0.51762470  0.16716780  0.47477988     0.00400
C1450       C  0.99769487  0.17091565  0.49605822     0.00300
C1451       C  0.97748958  0.14927868  0.52059819    -0.12800
C1452       C  0.97746376  0.12462632  0.52509411     0.00700
C1453       C  0.53818046  0.18804082  0.44732250     0.40000
C1454       C  0.95633955  0.10310992  0.55089930     0.36700
C1455       C  0.51009840  0.10245661  0.58641387     0.36400
C1456       C  0.99091488  0.04044380  0.43115700     0.37200
N1457       N  0.55462943  0.20472185  0.42524053    -0.43600
N1458       N  0.93950049  0.08587604  0.57172080    -0.44100
N1459       N  0.98800915  0.02849617  0.39916727    -0.41400
N1460       N  0.51505211  0.11530979  0.61790467    -0.42900
H1461       H  0.50869486  0.05515614  0.57895194     0.13300
H1462       H  0.98998603  0.08662861  0.43914399     0.09800
H1463       H  0.53280396  0.13969760  0.46249661     0.10800
H1464       H  0.96199247  0.15182349  0.53711099     0.16600
C1465       C  0.98489089  0.34843140  0.47404602    -0.01600
C1466       C  0.00316267  0.36924202  0.50239700     0.07000
C1467       C  0.52004522  0.36425484  0.52973126    -0.07500
C1468       C  0.51933131  0.33916684  0.52860221     0.04500
C1469       C  0.00133732  0.31843024  0.49975907    -0.14800
C1470       C  0.98400496  0.32323078  0.47312144    -0.08100
C1471       C  0.00430829  0.39600270  0.50536089     0.05400
C1472       C  0.99547437  0.40256147  0.54372690    -0.09200
C1473       C  0.99561459  0.42727910  0.54772218     0.00400
C1474       C  0.00466175  0.44598363  0.51273005     0.00300
C1475       C  0.51435062  0.43974530  0.47495370    -0.12800
C1476       C  0.51423460  0.41503104  0.47100235     0.00700
C1477       C  0.98666644  0.43301764  0.58825754     0.40000
C1478       C  0.52453410  0.40966069  0.43152149     0.36700
C1479       C  0.96661315  0.35235624  0.44610950     0.36400
C1480       C  0.53639275  0.33481372  0.55873378     0.37200
N1481       N  0.97945771  0.43739072  0.62094480    -0.43600
N1482       N  0.53274654  0.40525112  0.39991826    -0.44100
N1483       N  0.54995753  0.33126808  0.58301409    -0.41400
N1484       N  0.95205355  0.35558525  0.42363226    -0.42900
H1485       H  0.96998501  0.30738008  0.45113791     0.13300
H1486       H  0.53379594  0.38003449  0.55206566     0.09800
H1487       H  0.98819432  0.38815181  0.57052923     0.10800
H1488       H  0.52149577  0.45401532  0.44799463     0.16600
C1489       C  0.50973228  0.23198314  0.69784694    -0.01600
C1490       C  0.49677928  0.24410557  0.72037543     0.07000
C1491       C  0.98465597  0.25639352  0.69659408    -0.07500
C1492       C  0.98519380  0.25670844  0.65108497     0.04500
C1493       C  0.99815032  0.24460990  0.62863536    -0.14800
C1494       C  0.51042757  0.23246636  0.65227948    -0.08100
C1495       C  0.49735507  0.24593826  0.76855808     0.05400
C1496       C  0.52255786  0.26149908  0.78937809    -0.09200
C1497       C  0.52425456  0.26489225  0.83459204     0.00400
C1498       C  0.00017438  0.25236055  0.86012389     0.00300
C1499       C  0.97489105  0.23682036  0.83880867    -0.12800
C1500       C  0.97334318  0.23361306  0.79350411     0.00700
C1501       C  0.55108671  0.28164444  0.85310607     0.40000
C1502       C  0.94689411  0.21722802  0.77349872     0.36700
C1503       C  0.52193282  0.21848499  0.72077285     0.36400
C1504       C  0.97362446  0.27081806  0.62813385     0.37200
N1505       N  0.57268059  0.29513704  0.86761332    -0.43600
N1506       N  0.92568849  0.20413399  0.75748867    -0.44100
N1507       N  0.96456843  0.28228002  0.60963812    -0.41400
N1508       N  0.53166163  0.20760846  0.73911946    -0.42900
H1509       H  0.52027266  0.22302807  0.63502421     0.13300
H1510       H  0.97521815  0.26626268  0.71377603     0.09800
H1511       H  0.54104173  0.27136843  0.76999998     0.10800
H1512       H  0.95615314  0.22693843  0.85750631     0.16600
C1513       C  0.52503025  0.26355824  0.29345549    -0.01600
C1514       C  0.00091043  0.24986799  0.26841168     0.07000
C1515       C  0.97601889  0.23355745  0.28969575    -0.07500
C1516       C  0.97467397  0.23120735  0.33511503     0.04500
C1517       C  0.99879289  0.24552604  0.36047297    -0.14800
C1518       C  0.52376733  0.26135803  0.33887746    -0.08100
C1519       C  0.00118794  0.25186456  0.22010367     0.05400
C1520       C  0.51687620  0.24361941  0.19608521    -0.09200
C1521       C  0.51761042  0.24505854  0.15060093     0.00400
C1522       C  0.00194841  0.25437856  0.12832026     0.00300
C1523       C  0.98591016  0.26217879  0.15225604    -0.12800
C1524       C  0.98566095  0.26132032  0.19780922     0.00700
C1525       C  0.53358980  0.23572620  0.12740624     0.40000
C1526       C  0.96994058  0.27098697  0.22088950     0.36700
C1527       C  0.55130601  0.28042387  0.27334520     0.36400
C1528       C  0.94821451  0.21359955  0.35416218     0.37200
N1529       N  0.54634750  0.22820528  0.10880383    -0.43600
N1530       N  0.95735013  0.27878354  0.23928464    -0.44100
N1531       N  0.92693703  0.19940112  0.36912480    -0.41400
N1532       N  0.57239760  0.29378214  0.25724460    -0.42900
H1533       H  0.54252082  0.27239032  0.35741310     0.13300
H1534       H  0.95749470  0.22244988  0.27059156     0.09800
H1535       H  0.52840101  0.23580532  0.21289335     0.10800
H1536       H  0.97394750  0.26944620  0.13531347     0.16600
C1537       C  0.52300189  0.15660535  0.97829317    -0.01600
C1538       C  0.50144162  0.13307826  0.99744733     0.07000
C1539       C  0.97988487  0.13449412  0.01704973    -0.07500
C1540       C  0.97921676  0.15886603  0.01710404     0.04500
C1541       C  0.50057748  0.18251173  0.99725368    -0.14800
C1542       C  0.52248735  0.18108510  0.97848168    -0.08100
C1543       C  0.50079629  0.10665103  0.99731600     0.05400
C1544       C  0.50698983  0.09753768  0.03577562    -0.09200
C1545       C  0.50622450  0.07244462  0.03697267     0.00400
C1546       C  0.49901947  0.05608560  0.99922180     0.00300
C1547       C  0.99216215  0.06496283  0.96110311    -0.12800
C1548       C  0.99319213  0.09013299  0.95977365     0.00700
C1549       C  0.51262512  0.06379551  0.07728897     0.40000
C1550       C  0.98634917  0.09860236  0.91966147     0.36700
C1551       C  0.54583518  0.15604573  0.95847426     0.36400
C1552       C  0.95675297  0.15904680  0.03897173     0.37200
N1553       N  0.51780336  0.05692753  0.10965270    -0.43600
N1554       N  0.98095094  0.10542123  0.88745293    -0.44100
N1555       N  0.93871259  0.15907724  0.05657337    -0.41400
N1556       N  0.56409111  0.15553134  0.94258130    -0.42900
H1557       H  0.53910634  0.19903878  0.96338594     0.13300
H1558       H  0.96345798  0.11639943  0.03220825     0.09800
H1559       H  0.51250951  0.11011578  0.06479855     0.10800
H1560       H  0.98642659  0.05235505  0.93212721     0.16600
C1561       C  0.00587292  0.42023959  0.03465305    -0.01600
C1562       C  0.00241234  0.40560448  0.99581347     0.07000
C1563       C  0.49789480  0.41544380  0.95689347    -0.07500
C1564       C  0.49653769  0.43948444  0.95608530     0.04500
C1565       C  0.99984109  0.45405141  0.99479666    -0.14800
C1566       C  0.00456593  0.44425980  0.03385845    -0.08100
C1567       C  0.00265638  0.37953757  0.99567466     0.05400
C1568       C  0.98027020  0.35624115  0.01313089    -0.09200
C1569       C  0.97941198  0.33108908  0.01347873     0.00400
C1570       C  0.00136188  0.32890032  0.99582166     0.00300
C1571       C  0.52409569  0.35255859  0.97911400    -0.12800
C1572       C  0.52486068  0.37771417  0.97885598     0.00700
C1573       C  0.95614542  0.30825216  0.03364253     0.40000
C1574       C  0.54862065  0.40143493  0.96157583     0.36700
C1575       C  0.01126617  0.41123513  0.07550477     0.36400
C1576       C  0.49181857  0.44885801  0.91507574     0.37200
N1577       N  0.93747705  0.29005875  0.04995645    -0.43600
N1578       N  0.56764172  0.42050486  0.94783082    -0.44100
N1579       N  0.48793227  0.45628836  0.88217665    -0.41400
N1580       N  0.01564074  0.40404911  0.10824704    -0.42900
H1581       H  0.00741467  0.45554454  0.06374890     0.13300
H1582       H  0.49514758  0.40415318  0.92701653     0.09800
H1583       H  0.96339815  0.35777889  0.02665470     0.10800
H1584       H  0.54115013  0.35134750  0.96565346     0.16600
O1585       O  0.97815019  0.70893665  0.99623995    -0.72500
O1586       O  0.97859305  0.77996556  0.99444114    -0.73500
O1587       O  0.97796772  0.74353983  0.92972812    -0.62100
O1588       O  0.97875452  0.74509866  0.06036209    -0.70500
O1589       O  0.52407403  0.76659911  0.05963462    -0.70100
O1590       O  0.52308458  0.76633984  0.92930793    -0.61300
O1591       O  0.52382113  0.80250396  0.99464965    -0.73800
O1592       O  0.52335314  0.73117580  0.99440248    -0.72600
Cu1593     Cu  0.97680278  0.74367003  0.99513766     1.04600
Cu1594     Cu  0.52515789  0.76752467  0.99442154     1.04300
C1595       C  0.50061635  0.70874758  0.99594784     0.93700
C1596       C  0.50124447  0.80253945  0.99507354     0.92800
C1597       C  0.50044244  0.75436900  0.90870838     0.85000
C1598       C  0.50157279  0.75550876  0.08055810     0.91300
O1599       O  0.97526152  0.69743144  0.49588848    -0.72500
O1600       O  0.97695707  0.76954377  0.49458738    -0.73500
O1601       O  0.97597214  0.73319973  0.42994899    -0.62100
O1602       O  0.97582169  0.73389304  0.56000996    -0.70500
O1603       O  0.52107639  0.75392708  0.56087411    -0.70100
O1604       O  0.52113102  0.75607712  0.43004300    -0.61300
O1605       O  0.52222199  0.79097102  0.49788371    -0.73800
O1606       O  0.52048628  0.71946303  0.49366951    -0.72600
Cu1607     Cu  0.97441589  0.73270878  0.49502002     1.04600
Cu1608     Cu  0.52279964  0.75586193  0.49552329     1.04300
C1609       C  0.99770217  0.69712522  0.49476759     0.93700
C1610       C  0.99997089  0.79164062  0.49722572     0.92800
C1611       C  0.99847514  0.74474440  0.40909533     0.85000
C1612       C  0.99831914  0.74399525  0.58087765     0.91300
C1613       C  0.97443198  0.97999064  0.99590415     0.02700
C1614       C  0.99944857  0.98013165  0.99541876     0.02700
C1615       C  0.52435434  0.50520554  0.99624581     0.02700
C1616       C  0.52423874  0.53008925  0.99714206     0.02700
C1617       C  0.49915785  0.52989929  0.99823666     0.02700
C1618       C  0.97426745  0.00484161  0.99759861     0.02700
C1619       C  0.52623428  0.52172847  0.51304209     0.02700
C1620       C  0.52761801  0.99745247  0.51362741     0.02700
C1621       C  0.00330108  0.97170809  0.51414156     0.02700
C1622       C  0.97766756  0.97053856  0.51379759     0.02700
C1623       C  0.97640980  0.99489663  0.51396219     0.02700
C1624       C  0.00070185  0.52045404  0.51322759     0.02700
O1625       O  0.73363873  0.97516407  0.93481644    -0.72500
O1626       O  0.73485412  0.97487686  0.06527587    -0.73500
O1627       O  0.69882172  0.97527920  0.00116550    -0.62100
O1628       O  0.76993668  0.97518906  0.99933078    -0.70500
O1629       O  0.79243337  0.52045964  0.00065177    -0.70100
O1630       O  0.72190199  0.52062492  0.00049592    -0.61300
O1631       O  0.75713975  0.52011349  0.06581793    -0.73800
O1632       O  0.75749507  0.52064100  0.93526937    -0.72600
Cu1633     Cu  0.73348510  0.97352928  0.00010757     1.04600
Cu1634     Cu  0.75796730  0.52200147  0.00055518     1.04300
C1635       C  0.74579738  0.49805744  0.91446507     0.93700
C1636       C  0.74636514  0.49741380  0.08630799     0.92800
C1637       C  0.69917474  0.49816687  0.00114294     0.85000
C1638       C  0.79249899  0.49794115  0.00016320     0.91300
O1639       O  0.80001044  0.51971019  0.50171103    -0.72500
O1640       O  0.73143617  0.52453022  0.49873469    -0.73500
O1641       O  0.76492441  0.52252839  0.56548658    -0.62100
O1642       O  0.76625790  0.52188222  0.43500483    -0.70500
O1643       O  0.74062408  0.97675913  0.43552932    -0.70100
O1644       O  0.74044201  0.97731476  0.56580001    -0.61300
O1645       O  0.70672082  0.97943995  0.49995607    -0.73800
O1646       O  0.77501864  0.97462063  0.50129904    -0.72600
Cu1647     Cu  0.76659043  0.52374354  0.50020490     1.04600
Cu1648     Cu  0.73992237  0.97548660  0.50064790     1.04300
C1649       C  0.79841674  0.99631597  0.50203125     0.93700
C1650       C  0.70817302  0.00270215  0.49918291     0.92800
C1651       C  0.75203690  0.99998254  0.58640212     0.85000
C1652       C  0.75313575  0.99927181  0.41473266     0.91300
O1653       O  0.70324442  0.73034262  0.00343809    -0.72500
O1654       O  0.77509363  0.80064640  0.99876376    -0.73500
O1655       O  0.73648056  0.76565775  0.93606842    -0.62100
O1656       O  0.74174622  0.76549431  0.06630057    -0.70500
O1657       O  0.76222308  0.74084825  0.06208322    -0.70100
O1658       O  0.75992746  0.74394692  0.93203495    -0.61300
O1659       O  0.79691754  0.77741101  0.99673191    -0.73800
O1660       O  0.72548605  0.70759167  0.99684102    -0.72600
Cu1661     Cu  0.73838157  0.76638347  0.00137989     1.04600
Cu1662     Cu  0.76188686  0.74165929  0.99681969     1.04300
C1663       C  0.70309410  0.70775615  0.00002096     0.93700
C1664       C  0.79745296  0.80021924  0.99687947     0.92800
C1665       C  0.74767212  0.75500171  0.91349160     0.85000
C1666       C  0.75243324  0.75284287  0.08470673     0.91300
O1667       O  0.75893966  0.73709391  0.56602990    -0.72500
O1668       O  0.76166951  0.73577905  0.43552474    -0.73500
O1669       O  0.79653027  0.77130894  0.50192818    -0.62100
O1670       O  0.72428513  0.70162801  0.49994315    -0.70500
O1671       O  0.70290007  0.72531461  0.49671274    -0.70100
O1672       O  0.77510254  0.79488484  0.49880632    -0.61300
O1673       O  0.74033516  0.75948190  0.43243486    -0.73800
O1674       O  0.73750411  0.76071261  0.56276278    -0.72600
Cu1675     Cu  0.76111124  0.73564249  0.50094568     1.04600
Cu1676     Cu  0.73825663  0.76093812  0.49749399     1.04300
C1677       C  0.74767718  0.74894719  0.58517039     0.93700
C1678       C  0.75126480  0.74733428  0.41315629     0.92800
C1679       C  0.79731797  0.79427214  0.50106988     0.85000
C1680       C  0.70210872  0.70238028  0.49831453     0.91300
C1681       C  0.74135977  0.77083244  0.69921114    -0.01600
C1682       C  0.74644932  0.75340986  0.72537899     0.07000
C1683       C  0.75068549  0.73357427  0.70542967    -0.07500
C1684       C  0.75063774  0.73129640  0.66008229     0.04500
C1685       C  0.74665520  0.74948537  0.63354071    -0.14800
C1686       C  0.74166460  0.76887278  0.65379610    -0.08100
C1687       C  0.74728836  0.75526985  0.77362782     0.05400
C1688       C  0.72381675  0.75049713  0.79639684    -0.09200
C1689       C  0.72356572  0.75093276  0.84198847     0.00400
C1690       C  0.74702263  0.75570230  0.86548535     0.00300
C1691       C  0.77051412  0.76068100  0.84264725    -0.12800
C1692       C  0.77092557  0.76077209  0.79717654     0.00700
C1693       C  0.69864183  0.74520546  0.86368113     0.40000
C1694       C  0.79601635  0.76705326  0.77547626     0.36700
C1695       C  0.73622688  0.79116354  0.71819742     0.36400
C1696       C  0.75372997  0.70942995  0.64212256     0.37200
N1697       N  0.67861937  0.74061584  0.88090804    -0.43600
N1698       N  0.81618345  0.77214300  0.75824682    -0.44100
N1699       N  0.75603393  0.69177000  0.62786836    -0.41400
N1700       N  0.73189585  0.80727762  0.73353796    -0.42900
H1701       H  0.73829671  0.78283638  0.63415969     0.13300
H1702       H  0.75383243  0.71962205  0.72552405     0.09800
H1703       H  0.70550450  0.74597775  0.77846838     0.10800
H1704       H  0.78874505  0.76476531  0.86044579     0.16600
C1705       C  0.74255515  0.72408396  0.19836179    -0.01600
C1706       C  0.75114776  0.74761720  0.22418423     0.07000
C1707       C  0.76092184  0.77303599  0.20384145    -0.07500
C1708       C  0.76175433  0.77521075  0.15843594     0.04500
C1709       C  0.75300969  0.75166926  0.13261211    -0.14800
C1710       C  0.74381499  0.72632371  0.15290250    -0.08100
C1711       C  0.75018725  0.74633730  0.27245772     0.05400
C1712       C  0.76713917  0.73900227  0.29485585    -0.09200
C1713       C  0.76793555  0.73905414  0.34047798     0.00400
C1714       C  0.75134858  0.74652672  0.36465682     0.00300
C1715       C  0.73414122  0.75351293  0.34180361    -0.12800
C1716       C  0.73345578  0.75347724  0.29629525     0.00700
C1717       C  0.78663450  0.73218421  0.36111101     0.40000
C1718       C  0.71513329  0.76050843  0.27471614     0.36700
C1719       C  0.73129870  0.69734281  0.21769802     0.36400
C1720       C  0.77247483  0.80189900  0.13909290     0.37200
N1721       N  0.80169590  0.72670156  0.37745059    -0.43600
N1722       N  0.70048139  0.76615884  0.25737249    -0.44100
N1723       N  0.78113395  0.82325766  0.12346137    -0.41400
N1724       N  0.72212740  0.67587065  0.23311009    -0.42900
H1725       H  0.73682462  0.70812274  0.13316488     0.13300
H1726       H  0.76789198  0.79122792  0.22358675     0.09800
H1727       H  0.78021437  0.73372955  0.27652914     0.10800
H1728       H  0.72100768  0.75898220  0.35947592     0.16600
C1729       C  0.72179857  0.48218346  0.79780502    -0.01600
C1730       C  0.74639265  0.49763347  0.77472661     0.07000
C1731       C  0.77063334  0.01315393  0.79775706    -0.07500
C1732       C  0.77085547  0.01358597  0.84330079     0.04500
C1733       C  0.74629784  0.99797137  0.86648041    -0.14800
C1734       C  0.72204221  0.48226855  0.84340034    -0.08100
C1735       C  0.74725078  0.49779975  0.72652319     0.05400
C1736       C  0.75271732  0.02152152  0.70442491    -0.09200
C1737       C  0.75409021  0.02278774  0.65890884     0.00400
C1738       C  0.75046599  0.99989126  0.63468694     0.00300
C1739       C  0.74475771  0.47604185  0.65718398    -0.12800
C1740       C  0.74295706  0.47474330  0.70261292     0.00700
C1741       C  0.75796815  0.04740192  0.63825662     0.40000
C1742       C  0.73695843  0.44962285  0.72398310     0.36700
C1743       C  0.69604963  0.46686405  0.77531986     0.36400
C1744       C  0.79667370  0.02928634  0.86548347     0.37200
N1745       N  0.76086503  0.06711307  0.62195176    -0.43600
N1746       N  0.73195665  0.42940855  0.74101989    -0.44100
N1747       N  0.81737026  0.04178498  0.88325944    -0.41400
N1748       N  0.67545493  0.45472684  0.75713421    -0.42900
H1749       H  0.70308578  0.47035858  0.86104189     0.13300
H1750       H  0.78958067  0.02492507  0.78002448     0.09800
H1751       H  0.75564493  0.03913490  0.72286897     0.10800
H1752       H  0.74173909  0.45821911  0.63930545     0.16600
C1753       C  0.77562769  0.51763534  0.29802165    -0.01600
C1754       C  0.75148458  0.50017592  0.27492143     0.07000
C1755       C  0.72774187  0.98287833  0.29813743    -0.07500
C1756       C  0.72776954  0.98230784  0.34366078     0.04500
C1757       C  0.75213680  0.99919237  0.36674643    -0.14800
C1758       C  0.77565011  0.51711550  0.34355796    -0.08100
C1759       C  0.75037853  0.49985860  0.22666956     0.05400
C1760       C  0.74399820  0.97566256  0.20482720    -0.09200
C1761       C  0.74239238  0.97415439  0.15934654     0.00400
C1762       C  0.74731459  0.99739197  0.13473461     0.00300
C1763       C  0.75283485  0.52135809  0.15704974    -0.12800
C1764       C  0.75414648  0.52265707  0.20252563     0.00700
C1765       C  0.73620686  0.94860592  0.13929294     0.40000
C1766       C  0.75859485  0.54732960  0.22371257     0.36700
C1767       C  0.80074755  0.53582243  0.27578655     0.36400
C1768       C  0.70224356  0.96532219  0.36584512     0.37200
N1769       N  0.73120205  0.92805245  0.12347790    -0.43600
N1770       N  0.76221852  0.56710775  0.24073879    -0.44100
N1771       N  0.68176202  0.95187122  0.38362209    -0.41400
N1772       N  0.82086695  0.55052194  0.25803649    -0.42900
H1773       H  0.79430062  0.53051727  0.36110399     0.13300
H1774       H  0.70894924  0.97002096  0.28052413     0.09800
H1775       H  0.74036902  0.95786830  0.22346254     0.10800
H1776       H  0.75576767  0.53909721  0.13901816     0.16600
C1777       C  0.58541908  0.58532987  0.46472456    -0.01600
C1778       C  0.60032614  0.59924583  0.50217666     0.07000
C1779       C  0.59052755  0.58790774  0.54337943    -0.07500
C1780       C  0.56644569  0.56274032  0.54761728     0.04500
C1781       C  0.55172167  0.54868501  0.51015498    -0.14800
C1782       C  0.56121485  0.56028292  0.46899951    -0.08100
C1783       C  0.62621183  0.62566112  0.49928830     0.05400
C1784       C  0.62657681  0.64952768  0.51246704    -0.09200
C1785       C  0.65082608  0.67480472  0.51184810     0.00400
C1786       C  0.67549623  0.67639074  0.49822713     0.00300
C1787       C  0.67489345  0.65230831  0.48489767    -0.12800
C1788       C  0.65056843  0.62714807  0.48515438     0.00700
C1789       C  0.64974266  0.69843949  0.52672989     0.40000
C1790       C  0.65116205  0.60304004  0.47150665     0.36700
C1791       C  0.59447356  0.59647249  0.42173637     0.36400
C1792       C  0.55701684  0.55192933  0.59063749     0.37200
N1793       N  0.64878927  0.71734261  0.53861520    -0.43600
N1794       N  0.65162436  0.58374754  0.46039220    -0.44100
N1795       N  0.54939517  0.54344956  0.62521474    -0.41400
N1796       N  0.60175160  0.60536360  0.38725039    -0.42900
H1797       H  0.54975672  0.54958482  0.44017999     0.13300
H1798       H  0.60186909  0.59868235  0.57224345     0.09800
H1799       H  0.60781813  0.64833178  0.52352477     0.10800
H1800       H  0.69349932  0.65307835  0.47414251     0.16600
C1801       C  0.91032587  0.91032207  0.54907988    -0.01600
C1802       C  0.90253815  0.89358344  0.51181003     0.07000
C1803       C  0.91943466  0.90208137  0.47506204    -0.07500
C1804       C  0.94383159  0.92713829  0.47490799     0.04500
C1805       C  0.95189060  0.94373900  0.51245675    -0.14800
C1806       C  0.93487666  0.93519616  0.54914669    -0.08100
C1807       C  0.87591571  0.86803711  0.50942205     0.05400
C1808       C  0.85236427  0.86984283  0.50380084    -0.09200
C1809       C  0.82665738  0.84634884  0.50061627     0.00400
C1810       C  0.82416979  0.82014348  0.50329996     0.00300
C1811       C  0.84810316  0.81861153  0.50897858    -0.12800
C1812       C  0.87379306  0.84224572  0.51195831     0.00700
C1813       C  0.80352537  0.85017853  0.49426095     0.40000
C1814       C  0.89767438  0.83965032  0.51837715     0.36700
C1815       C  0.89343895  0.90231056  0.58752500     0.36400
C1816       C  0.95953275  0.93597954  0.43525361     0.37200
N1817       N  0.78514306  0.85350224  0.48912391    -0.43600
N1818       N  0.91685559  0.83767362  0.52363782    -0.44100
N1819       N  0.97204748  0.94306360  0.40338050    -0.41400
N1820       N  0.87986750  0.89584676  0.61830693    -0.42900
H1821       H  0.94083630  0.94805013  0.57786717     0.13300
H1822       H  0.91313439  0.88943380  0.44607214     0.09800
H1823       H  0.85415673  0.88981545  0.50162995     0.10800
H1824       H  0.84684959  0.79890810  0.51134750     0.16600
C1825       C  0.59421578  0.50757746  0.46864671    -0.01600
C1826       C  0.60587902  0.00253785  0.50537544     0.07000
C1827       C  0.59200354  0.99612183  0.54520930    -0.07500
C1828       C  0.56656297  0.99446232  0.54866920     0.04500
C1829       C  0.55467869  0.99913934  0.51170383    -0.14800
C1830       C  0.56871776  0.50573788  0.47196006    -0.08100
C1831       C  0.63207789  0.00282869  0.50250307     0.05400
C1832       C  0.65638070  0.52687301  0.51222757    -0.09200
C1833       C  0.68153579  0.52772206  0.51035555     0.00400
C1834       C  0.68248904  0.00389175  0.49914114     0.00300
C1835       C  0.65789343  0.97999614  0.48863499    -0.12800
C1836       C  0.63290132  0.97935485  0.49008566     0.00700
C1837       C  0.70577603  0.55323457  0.52079227     0.40000
C1838       C  0.60827472  0.95433246  0.47898953     0.36700
C1839       C  0.60809845  0.51453716  0.42725769     0.36400
C1840       C  0.55324425  0.98824044  0.59048234     0.37200
N1841       N  0.72514530  0.57377854  0.52898444    -0.43600
N1842       N  0.58853312  0.93430632  0.47007104    -0.44100
N1843       N  0.54282515  0.98336457  0.62424260    -0.41400
N1844       N  0.61936275  0.52017683  0.39418672    -0.42900
H1845       H  0.55960986  0.50924684  0.44341733     0.13300
H1846       H  0.60102847  0.99225918  0.57352831     0.09800
H1847       H  0.65566671  0.54500887  0.52137613     0.10800
H1848       H  0.65808335  0.96162572  0.47928220     0.16600
C1849       C  0.90950257  0.98582068  0.47096122    -0.01600
C1850       C  0.89939248  0.99305181  0.50739242     0.07000
C1851       C  0.91398370  0.49970437  0.54659903    -0.07500
C1852       C  0.93874379  0.49981921  0.54961311     0.04500
C1853       C  0.94946932  0.99369314  0.51273623    -0.14800
C1854       C  0.93442669  0.98627638  0.47381534    -0.08100
C1855       C  0.87361639  0.49386777  0.50511094     0.05400
C1856       C  0.84885933  0.97015355  0.51413271    -0.09200
C1857       C  0.82410910  0.97020268  0.51282249     0.00400
C1858       C  0.82394210  0.99463717  0.50292642     0.00300
C1859       C  0.84900744  0.51830421  0.49339280    -0.12800
C1860       C  0.87359935  0.51797908  0.49404237     0.00700
C1861       C  0.79945094  0.94486074  0.52225362     0.40000
C1862       C  0.89856729  0.54244360  0.48232187     0.36700
C1863       C  0.89464280  0.97799709  0.43038449     0.36400
C1864       C  0.95250721  0.50562059  0.59112517     0.37200
N1865       N  0.77974481  0.92445378  0.52963426    -0.43600
N1866       N  0.91857277  0.56191125  0.47246492    -0.44100
N1867       N  0.96349208  0.51011472  0.62444282    -0.41400
N1868       N  0.88262657  0.97165052  0.39793786    -0.42900
H1869       H  0.94231302  0.98103162  0.44555523     0.13300
H1870       H  0.90598608  0.50478511  0.57490765     0.09800
H1871       H  0.84889668  0.95150951  0.52217622     0.10800
H1872       H  0.84945818  0.53711753  0.48491698     0.16600
C1873       C  0.62960792  0.65486760  0.02420780    -0.01600
C1874       C  0.62668302  0.63198754  0.00134314     0.07000
C1875       C  0.64871761  0.63402681  0.97770919    -0.07500
C1876       C  0.67375822  0.65839949  0.97698789     0.04500
C1877       C  0.67687353  0.68155516  0.99974186    -0.14800
C1878       C  0.65450982  0.67950539  0.02290607    -0.08100
C1879       C  0.60058766  0.60582075  0.00077337     0.05400
C1880       C  0.58471310  0.59824784  0.96280687    -0.09200
C1881       C  0.55995868  0.57359053  0.96076049     0.00400
C1882       C  0.55055915  0.55638912  0.99754858     0.00300
C1883       C  0.56663835  0.56392489  0.03536895    -0.12800
C1884       C  0.59170612  0.58823322  0.03701056     0.00700
C1885       C  0.54498157  0.56613980  0.92029586     0.40000
C1886       C  0.60838876  0.59427194  0.07553542     0.36700
C1887       C  0.60726089  0.65342530  0.04898235     0.36400
C1888       C  0.69558404  0.65913080  0.95165310     0.37200
N1889       N  0.53310683  0.56030545  0.88770830    -0.43600
N1890       N  0.62184451  0.59894614  0.10628604    -0.44100
N1891       N  0.71312161  0.65971651  0.93150101    -0.41400
N1892       N  0.58927846  0.65202087  0.06893038    -0.42900
H1893       H  0.65660337  0.69702331  0.04061644     0.13300
H1894       H  0.64630165  0.61644700  0.95979992     0.09800
H1895       H  0.59180991  0.61158495  0.93465264     0.10800
H1896       H  0.55964040  0.55065129  0.06356309     0.16600
C1897       C  0.84754945  0.87612873  0.98733593    -0.01600
C1898       C  0.87292229  0.87733624  0.99022406     0.07000
C1899       C  0.87375907  0.85316334  0.99454632    -0.07500
C1900       C  0.84968751  0.82779131  0.99623322     0.04500
C1901       C  0.82394254  0.82640491  0.99440707    -0.14800
C1902       C  0.82341862  0.85089477  0.98967600    -0.08100
C1903       C  0.89885601  0.90370464  0.99083376     0.05400
C1904       C  0.91296029  0.91287836  0.03037013    -0.09200
C1905       C  0.93744856  0.93776149  0.03272544     0.00400
C1906       C  0.94826042  0.95367521  0.99492372     0.00300
C1907       C  0.93414087  0.94451876  0.95535677    -0.12800
C1908       C  0.90956305  0.91967705  0.95303295     0.00700
C1909       C  0.95096876  0.94664706  0.07428860     0.40000
C1910       C  0.89589359  0.91078736  0.91155028     0.36700
C1911       C  0.84580450  0.90056536  0.98236329     0.36400
C1912       C  0.85243171  0.80384881  0.99999997     0.37200
N1913       N  0.96177497  0.95367992  0.10766845    -0.43600
N1914       N  0.88491056  0.90366746  0.87831282    -0.44100
N1915       N  0.85489645  0.78480753  0.00282432    -0.41400
N1916       N  0.84444108  0.92014176  0.97795905    -0.42900
H1917       H  0.80408638  0.85045733  0.98770154     0.13300
H1918       H  0.89338059  0.85417819  0.99664378     0.09800
H1919       H  0.90466109  0.90064030  0.05948330     0.10800
H1920       H  0.94242685  0.95676594  0.92627654     0.16600
C1921       C  0.58563834  0.00220412  0.03788038    -0.01600
C1922       C  0.59939791  0.00335750  0.99903322     0.07000
C1923       C  0.58886128  0.50598713  0.95928349    -0.07500
C1924       C  0.56464898  0.50695488  0.95762862     0.04500
C1925       C  0.55062777  0.50522588  0.99642119    -0.14800
C1926       C  0.56137504  0.00300996  0.03619151    -0.08100
C1927       C  0.62506786  0.50233324  0.99967725     0.05400
C1928       C  0.62415311  0.97817547  0.01350354    -0.09200
C1929       C  0.64788772  0.97626865  0.01473446     0.00400
C1930       C  0.67322944  0.49886143  0.00127015     0.00300
C1931       C  0.67384632  0.52290034  0.98753424    -0.12800
C1932       C  0.65013276  0.52478363  0.98670852     0.00700
C1933       C  0.64568880  0.95143789  0.03160141     0.40000
C1934       C  0.65210722  0.55019424  0.97348185     0.36700
C1935       C  0.59641470  0.00089777  0.07984483     0.36400
C1936       C  0.55459004  0.50963555  0.91584150     0.37200
N1937       N  0.64380442  0.93153002  0.04535376    -0.43600
N1938       N  0.65362673  0.57053698  0.96295981    -0.44100
N1939       N  0.54675478  0.51183726  0.88213713    -0.41400
N1940       N  0.60513951  0.99993719  0.11345696    -0.42900
H1941       H  0.55078623  0.00202225  0.06610724     0.13300
H1942       H  0.59947773  0.50703493  0.92936327     0.09800
H1943       H  0.60487022  0.96094279  0.02380241     0.10800
H1944       H  0.69292863  0.54036585  0.97721372     0.16600
C1945       C  0.86806381  0.52444493  0.98536799    -0.01600
C1946       C  0.87078201  0.00233256  0.99968774     0.07000
C1947       C  0.84789766  0.97899701  0.01611719    -0.07500
C1948       C  0.82214689  0.97686493  0.01646586     0.04500
C1949       C  0.81908670  0.49862574  0.00039062    -0.14800
C1950       C  0.84240146  0.52241074  0.98557725    -0.08100
C1951       C  0.89743402  0.00328478  0.99864515     0.05400
C1952       C  0.91026740  0.50390912  0.03817482    -0.09200
C1953       C  0.93539283  0.50472253  0.03850414     0.00400
C1954       C  0.94785204  0.00456471  0.99881673     0.00300
C1955       C  0.93495144  0.00377704  0.95941007    -0.12800
C1956       C  0.90993477  0.00316481  0.95902726     0.00700
C1957       C  0.94791069  0.50576882  0.07990147     0.40000
C1958       C  0.89723003  0.00195287  0.91768160     0.36700
C1959       C  0.89145559  0.54967944  0.97127746     0.36400
C1960       C  0.79964287  0.95258239  0.03504416     0.37200
N1961       N  0.95762369  0.50664974  0.11345480    -0.43600
N1962       N  0.88703304  0.00110430  0.88460418    -0.44100
N1963       N  0.78170925  0.93310339  0.05008661    -0.41400
N1964       N  0.91024787  0.56989454  0.96013323    -0.42900
H1965       H  0.84063832  0.53955706  0.97399106     0.13300
H1966       H  0.85021027  0.96238885  0.02875768     0.09800
H1967       H  0.90069587  0.50396761  0.06868304     0.10800
H1968       H  0.94445110  0.00355677  0.92892734     0.16600
C1969       C  0.50376155  0.58629243  0.54724927    -0.01600
C1970       C  0.49817812  0.59522559  0.50767155     0.07000
C1971       C  0.99382196  0.57967570  0.46979676    -0.07500
C1972       C  0.99458908  0.55535425  0.47103540     0.04500
C1973       C  0.99953814  0.54612308  0.51075474    -0.14800
C1974       C  0.50423636  0.56181420  0.54852656    -0.08100
C1975       C  0.49756765  0.62109613  0.50451773     0.05400
C1976       C  0.51738994  0.64242655  0.47922247    -0.09200
C1977       C  0.51759266  0.66716134  0.47500946     0.00400
C1978       C  0.99745088  0.67080306  0.49612495     0.00300
C1979       C  0.97725940  0.64916843  0.52068553    -0.12800
C1980       C  0.97725264  0.62452706  0.52520147     0.00700
C1981       C  0.53820275  0.68807356  0.44767058     0.40000
C1982       C  0.95612674  0.60300491  0.55099596     0.36700
C1983       C  0.50985139  0.60226962  0.58658001     0.36400
C1984       C  0.99090510  0.54051275  0.43105765     0.37200
N1985       N  0.55469632  0.70478870  0.42568851    -0.43600
N1986       N  0.93928548  0.58576854  0.57181088    -0.44100
N1987       N  0.98803518  0.52862097  0.39901770    -0.41400
N1988       N  0.51473176  0.61505363  0.61813581    -0.42900
H1989       H  0.50844259  0.55497598  0.57899212     0.13300
H1990       H  0.98990863  0.58664884  0.43917460     0.09800
H1991       H  0.53284776  0.63974278  0.46284205     0.10800
H1992       H  0.96175480  0.65170492  0.53719030     0.16600
C1993       C  0.98455861  0.84827018  0.47427421    -0.01600
C1994       C  0.00290009  0.86909929  0.50253165     0.07000
C1995       C  0.51989320  0.86415637  0.52980522    -0.07500
C1996       C  0.51914384  0.83905178  0.52870000     0.04500
C1997       C  0.00101333  0.81826224  0.49991277    -0.14800
C1998       C  0.98364789  0.82305785  0.47334915    -0.08100
C1999       C  0.00410819  0.89588777  0.50545337     0.05400
C2000       C  0.99532563  0.90250125  0.54381841    -0.09200
C2001       C  0.99554735  0.92725870  0.54779184     0.00400
C2002       C  0.00462717  0.94594903  0.51278114     0.00300
C2003       C  0.51435816  0.93970567  0.47498239    -0.12800
C2004       C  0.51418778  0.91496148  0.47106249     0.00700
C2005       C  0.98664169  0.93305204  0.58832189     0.40000
C2006       C  0.52448763  0.90955397  0.43161508     0.36700
C2007       C  0.96623117  0.85218711  0.44644792     0.36400
C2008       C  0.53620501  0.83469047  0.55882086     0.37200
N2009       N  0.97946574  0.93747285  0.62100130    -0.43600
N2010       N  0.53270249  0.90511361  0.40004257    -0.44100
N2011       N  0.54976755  0.83113849  0.58309686    -0.41400
N2012       N  0.95162355  0.85540424  0.42406957    -0.42900
H2013       H  0.96958494  0.80719616  0.45142120     0.13300
H2014       H  0.53367484  0.87994361  0.55210196     0.09800
H2015       H  0.98802294  0.88810420  0.57063758     0.10800
H2016       H  0.52154642  0.95397479  0.44802271     0.16600
C2017       C  0.50946978  0.73179796  0.69791002    -0.01600
C2018       C  0.49662274  0.74403339  0.72042531     0.07000
C2019       C  0.98447445  0.75632847  0.69666757    -0.07500
C2020       C  0.98496482  0.75659753  0.65115693     0.04500
C2021       C  0.99787673  0.74445512  0.62870446    -0.14800
C2022       C  0.51016068  0.73226500  0.65234185    -0.08100
C2023       C  0.49720410  0.74587744  0.76860583     0.05400
C2024       C  0.52241940  0.76134951  0.78943191    -0.09200
C2025       C  0.52412262  0.76475210  0.83464471     0.00400
C2026       C  0.00004148  0.75233588  0.86019064     0.00300
C2027       C  0.97475077  0.73680228  0.83889288    -0.12800
C2028       C  0.97318930  0.73358050  0.79359188     0.00700
C2029       C  0.55097080  0.78139874  0.85316784     0.40000
C2030       C  0.94673446  0.71719293  0.77360582     0.36700
C2031       C  0.52155504  0.71819342  0.72084998     0.36400
C2032       C  0.97338815  0.77069881  0.62820138     0.37200
N2033       N  0.57257752  0.79480620  0.86768298    -0.43600
N2034       N  0.92552647  0.70409592  0.75760494    -0.44100
N2035       N  0.96432341  0.78215019  0.60969819    -0.41400
N2036       N  0.53118779  0.70722844  0.73920775    -0.42900
H2037       H  0.51992786  0.72274543  0.63509326     0.13300
H2038       H  0.97506984  0.76622981  0.71385107     0.09800
H2039       H  0.54090918  0.77114043  0.77006013     0.10800
H2040       H  0.95601716  0.72693280  0.85760225     0.16600
C2041       C  0.52484635  0.76350256  0.29352871    -0.01600
C2042       C  0.00072042  0.74981304  0.26848690     0.07000
C2043       C  0.97581195  0.73351051  0.28973318    -0.07500
C2044       C  0.97443375  0.73115995  0.33515164     0.04500
C2045       C  0.99853926  0.74544993  0.36054630    -0.14800
C2046       C  0.52357479  0.76129715  0.33894974    -0.08100
C2047       C  0.00103047  0.75181337  0.22017720     0.05400
C2048       C  0.51673842  0.74356127  0.19615946    -0.09200
C2049       C  0.51748007  0.74499519  0.15067342     0.00400
C2050       C  0.00182797  0.75430820  0.12839138     0.00300
C2051       C  0.98575637  0.76208371  0.15228863    -0.12800
C2052       C  0.98548943  0.76123641  0.19784080     0.00700
C2053       C  0.53348532  0.73568576  0.12749935     0.40000
C2054       C  0.96973338  0.77087879  0.22087620     0.36700
C2055       C  0.55112006  0.78040537  0.27343596     0.36400
C2056       C  0.94795182  0.71359435  0.35415930     0.37200
N2057       N  0.54626416  0.72818320  0.10891417    -0.43600
N2058       N  0.95711374  0.77865402  0.23923784    -0.44100
N2059       N  0.92665371  0.69943383  0.36908554    -0.41400
N2060       N  0.57221010  0.79379864  0.25735144    -0.42900
H2061       H  0.54232307  0.77234100  0.35749448     0.13300
H2062       H  0.95729860  0.72241418  0.27060045     0.09800
H2063       H  0.52827673  0.73576822  0.21298325     0.10800
H2064       H  0.97377948  0.76932305  0.13531559     0.16600
C2065       C  0.52277210  0.65651735  0.97782746    -0.01600
C2066       C  0.50128907  0.63301457  0.99717270     0.07000
C2067       C  0.97972636  0.63440189  0.01675251    -0.07500
C2068       C  0.97903902  0.65876250  0.01684506     0.04500
C2069       C  0.50042581  0.68244559  0.99711422    -0.14800
C2070       C  0.52225762  0.68099637  0.97808193    -0.08100
C2071       C  0.50067981  0.60660427  0.99709925     0.05400
C2072       C  0.50687623  0.59753309  0.03560190    -0.09200
C2073       C  0.50614871  0.57246045  0.03687685     0.00400
C2074       C  0.49896844  0.55607112  0.99916478     0.00300
C2075       C  0.99210512  0.56491889  0.96105263    -0.12800
C2076       C  0.99313151  0.59008555  0.95965250     0.00700
C2077       C  0.51256655  0.56386711  0.07723253     0.40000
C2078       C  0.98630530  0.59852934  0.91949883     0.36700
C2079       C  0.54553875  0.65594188  0.95777990     0.36400
C2080       C  0.95652150  0.65888917  0.03861962     0.37200
N2081       N  0.51776099  0.55704847  0.10963036    -0.43600
N2082       N  0.98092617  0.60532785  0.88725213    -0.44100
N2083       N  0.93843589  0.65887169  0.05614725    -0.41400
N2084       N  0.56374150  0.65541552  0.94170315    -0.42900
H2085       H  0.53881702  0.69893409  0.96284988     0.13300
H2086       H  0.96328128  0.61628095  0.03182351     0.09800
H2087       H  0.51237409  0.61013217  0.06459888     0.10800
H2088       H  0.98636921  0.55228724  0.93210433     0.16600
C2089       C  0.00592893  0.92028457  0.03481205    -0.01600
C2090       C  0.00238620  0.90557589  0.99602938     0.07000
C2091       C  0.49766343  0.91529950  0.95688608    -0.07500
C2092       C  0.49633193  0.93935406  0.95604288     0.04500
C2093       C  0.99978938  0.95400736  0.99488271    -0.14800
C2094       C  0.00462222  0.94430365  0.03394852    -0.08100
C2095       C  0.00263904  0.87951588  0.99595226     0.05400
C2096       C  0.98027749  0.85624041  0.01350727    -0.09200
C2097       C  0.97939883  0.83107925  0.01382448     0.00400
C2098       C  0.00130703  0.82886543  0.99605198     0.00300
C2099       C  0.52395938  0.85247865  0.97914623    -0.12800
C2100       C  0.52472274  0.87763212  0.97885483     0.00700
C2101       C  0.95615026  0.80825554  0.03404833     0.40000
C2102       C  0.54847103  0.90134151  0.96152146     0.36700
C2103       C  0.01138095  0.91134517  0.07567893     0.36400
C2104       C  0.49150736  0.94865579  0.91504563     0.37200
N2105       N  0.93749344  0.79007349  0.05040587    -0.43600
N2106       N  0.56748482  0.92040278  0.94773944    -0.44100
N2107       N  0.48753724  0.95602621  0.88215435    -0.41400
N2108       N  0.01579199  0.90420853  0.10843914    -0.42900
H2109       H  0.00754575  0.95565172  0.06379154     0.13300
H2110       H  0.49481946  0.90394608  0.92704804     0.09800
H2111       H  0.96343348  0.85779781  0.02710543     0.10800
H2112       H  0.54100026  0.85125588  0.96565396     0.16600
loop_ 
_geom_bond_atom_site_label_1 
_geom_bond_atom_site_label_2 
_geom_bond_distance 
_geom_bond_site_symmetry_2 
_ccdc_geom_bond_type 
O1           Cu9   2.006       .  S
O1         C1067   1.278       .  A
O2           Cu9   2.006       .  S
O2         C1068   1.278       .  A
O3           Cu9   2.011       .  S
O3         C1069   1.279       .  A
O4           Cu9   2.006   1_554  S
O4         C1070   1.277       .  A
O5          Cu10   2.004   1_554  S
O5           C14   1.277       .  A
O6          Cu10   2.003       .  S
O6           C13   1.277       .  A
O7          Cu10   2.020       .  S
O7           C12   1.279       .  A
O8          Cu10   2.009       .  S
O8           C11   1.278       .  A
Cu9       Cu1066   2.369       .  S
Cu10      Cu1065   2.369   1_455  S
C11        O1057   1.278   1_455  A
C11         C485   1.484       .  S
C12        O1058   1.277   1_455  A
C12        C1570   1.489       .  S
C13        O1059   1.279   1_455  A
C13        C1498   1.492       .  S
C14        O1060   1.277   1_455  A
C14        C1522   1.474       .  S
O15         Cu23   2.022       .  S
O15          C25   1.280       .  A
O16         Cu23   2.017       .  S
O16          C26   1.279       .  A
O17         Cu23   2.001       .  S
O17          C27   1.276       .  A
O18         Cu23   1.998       .  S
O18          C28   1.276       .  A
O19         Cu24   2.011       .  S
O19        C1084   1.278   1_455  A
O20         Cu24   2.014       .  S
O20        C1083   1.280   1_455  A
O21         Cu24   2.006       .  S
O21        C1082   1.277       .  A
O22         Cu24   1.999       .  S
O22        C1081   1.276   1_455  A
Cu23      Cu1080   2.370       .  S
Cu24      Cu1079   2.370   1_455  S
C25        O1078   1.276       .  A
C25         C394   1.484       .  S
C26        O1077   1.277       .  A
C26         C413   1.481       .  S
C27        O1076   1.280       .  A
C27         C461   1.492       .  S
C28        O1075   1.278       .  A
C28         C437   1.470       .  S
C29         C322   1.484       .  S
C29          C30   1.413       .  A
C29          C34   1.413       .  A
C30         C509   1.489       .  S
C30        C1615   1.411       .  A
C31         C341   1.487       .  S
C31          C32   1.412       .  A
C31        C1614   1.411   1_445  A
C32         C298   1.488       .  S
C32          C33   1.415   1_455  A
C33         C490   1.487       .  S
C33        C1618   1.413       .  A
C34         C370   1.489       .  S
C34        C1617   1.413       .  A
C35         C197   1.487       .  S
C35         C564   1.414   1_545  A
C35        C1096   1.411       .  A
C36         C245   1.488       .  S
C36         C563   1.414       .  A
C36        C1093   1.416       .  A
C37         C418   1.498       .  S
C37          C38   1.419       .  A
C37        C1092   1.416       .  A
C38         C221   1.488       .  S
C38          C39   1.416       .  A
C39         C269   1.493       .  S
C39         C568   1.413       .  A
C40         C389   1.489       .  S
C40        C1091   1.411       .  A
C40         C567   1.413   1_545  A
O41         Cu49   2.008   1_556  S
O41         C579   1.277       .  A
O42         Cu49   2.004       .  S
O42         C580   1.277       .  A
O43         Cu49   2.014       .  S
O43         C581   1.279       .  A
O44         Cu49   2.019   1_556  S
O44         C582   1.279   1_556  A
O45         Cu50   1.997       .  S
O45          C54   1.277   1_545  A
O46         Cu50   2.004       .  S
O46          C53   1.278   1_545  A
O47         Cu50   2.007       .  S
O47          C52   1.279   1_545  A
O48         Cu50   2.007   1_556  S
O48          C51   1.278   1_545  A
Cu49       Cu578   2.369       .  S
Cu50       Cu577   2.369   1_545  S
C51         O569   1.277       .  A
C51         C677   1.475       .  S
C52         O570   1.277       .  A
C52         C706   1.488       .  S
C53         O571   1.279       .  A
C53         C346   1.489       .  S
C54         O572   1.279   1_554  A
C54         C365   1.486       .  S
O55         Cu63   2.017       .  S
O55         C593   1.280   1_545  A
O56         Cu63   2.014       .  S
O56         C594   1.278       .  A
O57         Cu63   2.008       .  S
O57         C595   1.278       .  A
O58         Cu63   2.006       .  S
O58         C596   1.277   1_545  A
O59         Cu64   2.002       .  S
O59          C68   1.277       .  A
O60         Cu64   2.004       .  S
O60          C67   1.278       .  A
O61         Cu64   2.002       .  S
O61          C66   1.278       .  A
O62         Cu64   2.012       .  S
O62          C65   1.278       .  A
Cu63       Cu592   2.368   1_545  S
Cu64       Cu591   2.368       .  S
C65         O583   1.280       .  A
C65         C274   1.495       .  S
C66         O584   1.278       .  A
C66         C250   1.489       .  S
C67         O585   1.278       .  A
C67         C154   1.486       .  S
C68         O586   1.277       .  A
C68         C173   1.476       .  S
O69         Cu77   2.015       .  S
O69          C79   1.279   1_554  A
O70         Cu77   2.013   1_556  S
O70          C80   1.280       .  A
O71         Cu77   2.009   1_556  S
O71          C81   1.277       .  A
O72         Cu77   2.006       .  S
O72          C82   1.278       .  A
O73         Cu78   2.006   1_554  S
O73          C82   1.277       .  A
O74         Cu78   2.001       .  S
O74          C81   1.277       .  A
O75         Cu78   2.002       .  S
O75          C80   1.276       .  A
O76         Cu78   1.996       .  S
O76          C79   1.276       .  A
Cu77        Cu78   2.370   1_554  S
C79         C293   1.483       .  S
C80         C317   1.492       .  S
C81         C106   1.476       .  S
C82         C125   1.474       .  S
O83         Cu91   2.008       .  S
O83          C93   1.278       .  A
O84         Cu91   2.010       .  S
O84          C94   1.278       .  A
O85         Cu91   2.010       .  S
O85          C95   1.278       .  A
O86         Cu91   2.008       .  S
O86          C96   1.278       .  A
O87         Cu92   2.007       .  S
O87          C96   1.277       .  A
O88         Cu92   2.007       .  S
O88          C95   1.277       .  A
O89         Cu92   2.007       .  S
O89          C94   1.279       .  A
O90         Cu92   2.006       .  S
O90          C93   1.278       .  A
Cu91        Cu92   2.365       .  S
C93         C101   1.488       .  S
C94         C130   1.491       .  S
C95         C226   1.493       .  S
C96         C202   1.488       .  S
C97          C98   1.409       .  A
C97         C102   1.401       .  A
C97         C111   1.444       .  S
C98         C103   1.485       .  S
C98          C99   1.402       .  A
C99         C100   1.399       .  A
C99         H118   1.085       .  S
C100        C101   1.417       .  A
C100        C112   1.444       .  S
C101        C102   1.408       .  A
C102        H117   1.084       .  S
C103        C104   1.404       .  A
C103        C108   1.411       .  A
C104        C105   1.401       .  A
C104        H119   1.085       .  S
C105        C106   1.413       .  A
C105        C109   1.444       .  S
C106        C107   1.403       .  A
C107        C108   1.397       .  A
C107        H120   1.085       .  S
C108        C110   1.444       .  S
C109        N113   1.157       .  T
C110        N114   1.157       .  T
C111        N116   1.157       .  T
C112        N115   1.157       .  T
C121        C122   1.411       .  A
C121        C126   1.401       .  A
C121        C135   1.444       .  S
C122        C127   1.485       .  S
C122        C123   1.404       .  A
C123        C124   1.399       .  A
C123        H142   1.085       .  S
C124        C125   1.410       .  A
C124        C136   1.444       .  S
C125        C126   1.404       .  A
C126        H141   1.085       .  S
C127        C128   1.402       .  A
C127        C132   1.408       .  A
C128        C129   1.402       .  A
C128        H143   1.085       .  S
C129        C130   1.419       .  A
C129        C133   1.444       .  S
C130        C131   1.408       .  A
C131        C132   1.399       .  A
C131        H144   1.084       .  S
C132        C134   1.444       .  S
C133        N137   1.157       .  T
C134        N138   1.157       .  T
C135        N140   1.157       .  T
C136        N139   1.157       .  T
C145        C146   1.410       .  A
C145        C150   1.401       .  A
C145        C159   1.444       .  S
C146        C151   1.482       .  S
C146        C675   1.402   1_565  A
C147        C148   1.400       .  A
C147        C674   1.402       .  A
C147        H166   1.085       .  S
C148        C149   1.412       .  A
C148        C160   1.444       .  S
C149        C579   1.475       .  S
C149        C678   1.404       .  A
C150        C677   1.404       .  A
C150        H165   1.085       .  S
C151        C156   1.409       .  A
C151        C680   1.401   1_565  A
C152        C153   1.401       .  A
C152        C679   1.401       .  A
C152        H167   1.085       .  S
C153        C154   1.418       .  A
C153        C157   1.444       .  S
C154        C683   1.407       .  A
C155        C156   1.399       .  A
C155        C682   1.407       .  A
C155        H168   1.085       .  S
C156        C158   1.444       .  S
C157        N161   1.157       .  T
C158        N162   1.157       .  T
C159        N164   1.157       .  T
C160        N163   1.157       .  T
C169        C170   1.412       .  A
C169        C174   1.400       .  A
C169        C183   1.444       .  S
C170        C175   1.484   1_545  S
C170        C699   1.403   1_545  A
C171        C172   1.399       .  A
C171        C698   1.402       .  A
C171        H190   1.085       .  S
C172        C173   1.413       .  A
C172        C184   1.445       .  S
C173        C702   1.403       .  A
C174        C701   1.403   1_545  A
C174        H189   1.085       .  S
C175        C180   1.409   1_565  A
C175        C704   1.401       .  A
C176        C177   1.400       .  A
C176        C703   1.401       .  A
C176        H191   1.085       .  S
C177        C178   1.419       .  A
C177        C181   1.444       .  S
C178        C580   1.488       .  S
C178        C707   1.408       .  A
C179        C180   1.399       .  A
C179        C706   1.408   1_545  A
C179        H192   1.084       .  S
C180        C182   1.444       .  S
C181        N185   1.157       .  T
C182        N186   1.157       .  T
C183        N188   1.157       .  T
C184        N187   1.157       .  T
C193        C194   1.410       .  A
C193        C198   1.399       .  A
C193        C207   1.443       .  S
C194        C199   1.482       .  S
C194        C195   1.403       .  A
C195        C196   1.400       .  A
C195        H214   1.085       .  S
C196        C197   1.409       .  A
C196        C208   1.443       .  S
C197        C198   1.402       .  A
C198        H213   1.085       .  S
C199        C200   1.401       .  A
C199        C204   1.408       .  A
C200        C201   1.401       .  A
C200        H215   1.085       .  S
C201        C202   1.418       .  A
C201        C205   1.444       .  S
C202        C203   1.408       .  A
C203        C204   1.400       .  A
C203        H216   1.084       .  S
C204        C206   1.444       .  S
C205        N209   1.157       .  T
C206        N210   1.157       .  T
C207        N212   1.157       .  T
C208        N211   1.157       .  T
C217        C218   1.409       .  A
C217        C222   1.398       .  A
C217        C231   1.444       .  S
C218        C223   1.478       .  S
C218        C219   1.401       .  A
C219        C220   1.399       .  A
C219        H238   1.085       .  S
C220        C221   1.411       .  A
C220        C232   1.443       .  S
C221        C222   1.403       .  A
C222        H237   1.084       .  S
C223        C224   1.398       .  A
C223        C228   1.406       .  A
C224        C225   1.399       .  A
C224        H239   1.085       .  S
C225        C226   1.421       .  A
C225        C229   1.444       .  S
C226        C227   1.411       .  A
C227        C228   1.401       .  A
C227        H240   1.084       .  S
C228        C230   1.445       .  S
C229        N233   1.157       .  T
C230        N234   1.157       .  T
C231        N236   1.157       .  T
C232        N235   1.157       .  T
C241        C246   1.398       .  A
C241        C770   1.407       .  A
C241        C255   1.443       .  S
C242        C247   1.478       .  S
C242        C243   1.401       .  A
C242        C769   1.407       .  A
C243        C244   1.400       .  A
C243        H262   1.085       .  S
C244        C245   1.410       .  A
C244        C256   1.442       .  S
C245        C774   1.404       .  A
C246        C773   1.404   1_545  A
C246        H261   1.084       .  S
C247        C252   1.406       .  A
C247        C776   1.400       .  A
C248        C249   1.402       .  A
C248        C775   1.400       .  A
C248        H263   1.085       .  S
C249        C778   1.419       .  A
C249        C253   1.444       .  S
C250        C251   1.409       .  A
C250        C777   1.419       .  A
C251        C252   1.398       .  A
C251        H264   1.084       .  S
C252        C254   1.444       .  S
C253        N257   1.157       .  T
C254        N258   1.157       .  T
C255        N260   1.157       .  T
C256        N259   1.157       .  T
C265        C266   1.409       .  A
C265        C270   1.401       .  A
C265        C279   1.443       .  S
C266        C799   1.484       .  S
C266        C795   1.402       .  A
C267        C268   1.402       .  A
C267        C794   1.402       .  A
C267        H286   1.085   1_565  S
C268        C797   1.411       .  A
C268        C280   1.443   1_565  S
C269        C270   1.404       .  A
C269        C796   1.411       .  A
C270        H285   1.084       .  S
C271        C794   1.484       .  S
C271        C276   1.407   1_565  A
C271        C800   1.400       .  A
C272        C273   1.403       .  A
C272        C799   1.400       .  A
C272        H287   1.085       .  S
C273        C274   1.421       .  A
C273        C277   1.444       .  S
C274        C803   1.410       .  A
C275        C276   1.402       .  A
C275        C802   1.410   1_545  A
C275        H288   1.084       .  S
C276        C278   1.444       .  S
C277        N281   1.157       .  T
C278        N282   1.157       .  T
C279        N284   1.157       .  T
C280        N283   1.157       .  T
C289        C290   1.408       .  A
C289        C294   1.402       .  A
C289        C303   1.444       .  S
C290        C295   1.478       .  S
C290        C291   1.398   1_554  A
C291        C292   1.398       .  A
C291        H310   1.084       .  S
C292        C293   1.417       .  A
C292        C304   1.444       .  S
C293        C294   1.407   1_556  A
C294        H309   1.084       .  S
C295        C296   1.401   1_554  A
C295        C300   1.408       .  A
C296        C297   1.399       .  A
C296        H311   1.085       .  S
C297        C298   1.411       .  A
C297        C301   1.443       .  S
C298        C299   1.403   1_556  A
C299        C300   1.397       .  A
C299        H312   1.084       .  S
C300        C302   1.443       .  S
C301        N305   1.157       .  T
C302        N306   1.157       .  T
C303        N308   1.157       .  T
C304        N307   1.157       .  T
C313        C314   1.406       .  A
C313        C318   1.399       .  A
C313        C327   1.444       .  S
C314        C319   1.479       .  S
C314        C315   1.399       .  A
C315        C316   1.401       .  A
C315        H334   1.085       .  S
C316        C317   1.421       .  A
C316        C328   1.444   1_556  S
C317        C318   1.409       .  A
C318        H333   1.084       .  S
C319        C320   1.402   1_556  A
C319        C324   1.409       .  A
C320        C321   1.398       .  A
C320        H335   1.084       .  S
C321        C322   1.409   1_554  A
C321        C325   1.443       .  S
C322        C323   1.403       .  A
C323        C324   1.399       .  A
C323        H336   1.084       .  S
C324        C326   1.443       .  S
C325        N329   1.157       .  T
C326        N330   1.157       .  T
C327        N332   1.157       .  T
C328        N331   1.157       .  T
C337        C338   1.410   1_554  A
C337        C342   1.398       .  A
C337        C351   1.443       .  S
C338        C871   1.484       .  S
C338        C867   1.404       .  A
C339        C340   1.400       .  A
C339        C866   1.404       .  A
C339        H358   1.084       .  S
C340        C341   1.409       .  A
C340        C352   1.442       .  S
C341        C870   1.402   1_556  A
C342        C869   1.402   1_554  A
C342        H357   1.084       .  S
C343        C866   1.483       .  S
C343        C348   1.408       .  A
C343        C872   1.402   1_546  A
C344        C345   1.401       .  A
C344        C871   1.402   1_554  A
C344        H359   1.085       .  S
C345        C874   1.418       .  A
C345        C349   1.444       .  S
C346        C347   1.408   1_564  A
C346        C873   1.418       .  A
C347        C348   1.399       .  A
C347        H360   1.084       .  S
C348        C350   1.444       .  S
C349        N353   1.157       .  T
C350        N354   1.157       .  T
C351        N356   1.157       .  T
C352        N355   1.157       .  T
C361        C366   1.399       .  A
C361        C890   1.408       .  A
C361        C375   1.445       .  S
C362        C367   1.483       .  S
C362        C363   1.402   1_556  A
C362        C889   1.408       .  A
C363        C364   1.402       .  A
C363        H382   1.084       .  S
C364        C893   1.416       .  A
C364        C376   1.444       .  S
C365        C366   1.408   1_564  A
C365        C892   1.416       .  A
C366        H381   1.084       .  S
C367        C372   1.411       .  A
C367        C896   1.402   1_556  A
C368        C369   1.400       .  A
C368        C895   1.402   1_554  A
C368        H383   1.084       .  S
C369        C898   1.410   1_554  A
C369        C373   1.442       .  S
C370        C371   1.402       .  A
C370        C897   1.410   1_556  A
C371        C372   1.400       .  A
C371        H384   1.084       .  S
C372        C374   1.444       .  S
C373        N377   1.157       .  T
C374        N378   1.157       .  T
C375        N380   1.157       .  T
C376        N379   1.157       .  T
C385        C386   1.412   1_455  A
C385        C390   1.400       .  A
C385        C399   1.444       .  S
C386        C391   1.485       .  S
C386       C1443   1.403       .  A
C387        C388   1.400       .  A
C387       C1442   1.403       .  A
C387        H406   1.085       .  S
C388        C389   1.409       .  A
C388        C400   1.443       .  S
C389       C1446   1.402       .  A
C390       C1445   1.402   1_455  A
C390        H405   1.084       .  S
C391        C392   1.402   1_655  A
C391       C1452   1.411       .  A
C392        C393   1.401       .  A
C392        H407   1.085       .  S
C393       C1450   1.415   1_455  A
C393        C397   1.445       .  S
C394        C395   1.405       .  A
C394       C1449   1.415       .  A
C395        C396   1.402       .  A
C395        H408   1.085       .  S
C396       C1447   1.411       .  A
C396        C398   1.444       .  S
C397        N401   1.157       .  T
C398        N402   1.157       .  T
C399        N404   1.157       .  T
C400        N403   1.157       .  T
C409        C410   1.412       .  A
C409        C414   1.402       .  A
C409        C423   1.444       .  S
C410        C415   1.486       .  S
C410       C1467   1.402       .  A
C411        C412   1.401       .  A
C411       C1466   1.402       .  A
C411        H430   1.085       .  S
C412       C1469   1.414       .  A
C412        C424   1.445       .  S
C413        C414   1.404       .  A
C413       C1468   1.414       .  A
C414        H429   1.085       .  S
C415        C416   1.402       .  A
C415       C1476   1.410       .  A
C416        C417   1.401       .  A
C416        H431   1.085       .  S
C417        C418   1.413       .  A
C417        C421   1.442       .  S
C418       C1475   1.406       .  A
C419        C420   1.401       .  A
C419       C1474   1.406       .  A
C419        H432   1.084       .  S
C420       C1471   1.410       .  A
C420        C422   1.444       .  S
C421        N425   1.157       .  T
C422        N426   1.157       .  T
C423        N428   1.157       .  T
C424        N427   1.157       .  T
C433        C434   1.412   1_455  A
C433        C438   1.401       .  A
C433        C447   1.444       .  S
C434        C439   1.483       .  S
C434       C1491   1.403       .  A
C435        C436   1.399       .  A
C435       C1490   1.403       .  A
C435        H454   1.085       .  S
C436        C437   1.410       .  A
C436        C448   1.445       .  S
C437       C1494   1.402       .  A
C438       C1493   1.402   1_455  A
C438        H453   1.085       .  S
C439        C440   1.400   1_655  A
C439       C1500   1.409       .  A
C440        C441   1.399       .  A
C440        H455   1.085       .  S
C441       C1498   1.420       .  A
C441        C445   1.444       .  S
C442       C1069   1.492       .  S
C442        C443   1.410       .  A
C442       C1497   1.420       .  A
C443        C444   1.401       .  A
C443        H456   1.084       .  S
C444       C1495   1.409       .  A
C444        C446   1.444       .  S
C445        N449   1.157       .  T
C446        N450   1.157       .  T
C447        N452   1.157       .  T
C448        N451   1.157       .  T
C457        C462   1.400       .  A
C457       C1514   1.410       .  A
C457        C471   1.444       .  S
C458        C463   1.488       .  S
C458        C459   1.402       .  A
C458       C1513   1.411       .  A
C459        C460   1.400       .  A
C459        H478   1.085       .  S
C460        C461   1.420       .  A
C460        C472   1.444       .  S
C461       C1518   1.408       .  A
C462       C1517   1.408   1_455  A
C462        H477   1.084       .  S
C463        C468   1.414       .  A
C463       C1520   1.404       .  A
C464        C465   1.399       .  A
C464       C1519   1.404       .  A
C464        H479   1.085       .  S
C465       C1522   1.411       .  A
C465        C469   1.445       .  S
C466       C1070   1.474       .  S
C466        C467   1.402       .  A
C466       C1521   1.411       .  A
C467        C468   1.400       .  A
C467        H480   1.085       .  S
C468        C470   1.444       .  S
C469        N473   1.157       .  T
C470        N474   1.157       .  T
C471        N476   1.157       .  T
C472        N475   1.157       .  T
C481        C482   1.408       .  A
C481        C486   1.401       .  A
C481        C495   1.445       .  S
C482        C487   1.478       .  S
C482       C1539   1.399   1_456  A
C483        C484   1.399       .  A
C483       C1538   1.399   1_554  A
C483        H502   1.085       .  S
C484       C1541   1.417   1_554  A
C484        C496   1.444       .  S
C485        C486   1.407       .  A
C485       C1540   1.417   1_456  A
C486        H501   1.084       .  S
C487        C488   1.402   1_556  A
C487       C1548   1.408   1_455  A
C488        C489   1.400       .  A
C488        H503   1.085       .  S
C489        C490   1.411   1_454  A
C489        C493   1.443       .  S
C490       C1547   1.402       .  A
C491        C492   1.397       .  A
C491       C1546   1.402       .  A
C491        H504   1.084       .  S
C492       C1543   1.408       .  A
C492        C494   1.443       .  S
C493        N497   1.157       .  T
C494        N498   1.157       .  T
C495        N500   1.157       .  T
C496        N499   1.157       .  T
C505        C506   1.409   1_554  A
C505        C510   1.399       .  A
C505        C519   1.443       .  S
C506        C511   1.483       .  S
C506       C1563   1.403       .  A
C507        C508   1.401       .  A
C507       C1562   1.403   1_655  A
C507        H526   1.084       .  S
C508       C1565   1.410       .  A
C508        C520   1.443       .  S
C509        C510   1.402   1_556  A
C509       C1564   1.410       .  A
C510        H525   1.084       .  S
C511        C512   1.400   1_556  A
C511       C1572   1.409       .  A
C512        C513   1.400       .  A
C512        H527   1.085       .  S
C513        C514   1.418   1_554  A
C513        C517   1.444       .  S
C514       C1068   1.489       .  S
C514       C1571   1.408       .  A
C515        C516   1.403       .  A
C515       C1570   1.408       .  A
C515        H528   1.084       .  S
C516       C1567   1.408       .  A
C516        C518   1.444       .  S
C517        N521   1.157       .  T
C518        N522   1.157       .  T
C519        N524   1.157       .  T
C520        N523   1.157       .  T
O529       Cu537   2.006       .  S
O529       C1595   1.278       .  A
O530       Cu537   2.006       .  S
O530       C1596   1.278       .  A
O531       Cu537   2.011       .  S
O531       C1597   1.279       .  A
O532       Cu537   2.006   1_554  S
O532       C1598   1.277       .  A
O533       Cu538   2.004   1_554  S
O533        C542   1.277       .  A
O534       Cu538   2.003       .  S
O534        C541   1.277       .  A
O535       Cu538   2.019       .  S
O535        C540   1.279       .  A
O536       Cu538   2.009       .  S
O536        C539   1.278       .  A
Cu537     Cu1594   2.369       .  S
Cu538     Cu1593   2.369   1_455  S
C539       O1585   1.278   1_455  A
C539       C1013   1.484       .  S
C540       O1586   1.277   1_455  A
C540       C2098   1.489       .  S
C541       O1587   1.279   1_455  A
C541       C2026   1.492       .  S
C542       O1588   1.277   1_455  A
C542       C2050   1.474       .  S
O543       Cu551   2.022       .  S
O543        C553   1.280       .  A
O544       Cu551   2.017       .  S
O544        C554   1.279       .  A
O545       Cu551   2.001       .  S
O545        C555   1.276       .  A
O546       Cu551   1.998       .  S
O546        C556   1.276       .  A
O547       Cu552   2.011       .  S
O547       C1612   1.278   1_455  A
O548       Cu552   2.014       .  S
O548       C1611   1.280   1_455  A
O549       Cu552   2.006       .  S
O549       C1610   1.277   1_455  A
O550       Cu552   1.999       .  S
O550       C1609   1.276   1_455  A
Cu551     Cu1608   2.370       .  S
Cu552     Cu1607   2.370   1_455  S
C553       O1606   1.276       .  A
C553        C922   1.484       .  S
C554       O1605   1.277       .  A
C554        C941   1.481       .  S
C555       O1604   1.280       .  A
C555        C989   1.492       .  S
C556       O1603   1.278       .  A
C556        C965   1.470       .  S
C557        C850   1.484       .  S
C557        C558   1.413       .  A
C557        C562   1.413   1_565  A
C558       C1037   1.489       .  S
C558       C1087   1.411   1_565  A
C559        C869   1.487       .  S
C559       C1086   1.411   1_455  A
C559        C560   1.412       .  A
C560        C826   1.488       .  S
C560        C561   1.415   1_455  A
C561       C1018   1.487       .  S
C561       C1090   1.413       .  A
C562        C898   1.488       .  S
C562       C1089   1.413       .  A
C563        C725   1.487       .  S
C563       C1624   1.411       .  A
C564        C773   1.488       .  S
C564       C1621   1.416       .  A
C565        C946   1.498       .  S
C565       C1620   1.416       .  A
C565        C566   1.419       .  A
C566        C749   1.488       .  S
C566        C567   1.416       .  A
C567        C797   1.493       .  S
C568        C917   1.489       .  S
C568       C1619   1.411       .  A
O569       Cu577   2.008   1_556  S
O570       Cu577   2.004       .  S
O571       Cu577   2.015       .  S
O572       Cu577   2.019   1_556  S
O573       Cu578   1.997       .  S
O573        C582   1.277       .  A
O574       Cu578   2.004       .  S
O574        C581   1.278       .  A
O575       Cu578   2.008       .  S
O575        C580   1.279       .  A
O576       Cu578   2.007   1_556  S
O576        C579   1.278       .  A
C581        C874   1.489       .  S
C582        C893   1.486       .  S
O583       Cu591   2.017       .  S
O584       Cu591   2.014       .  S
O585       Cu591   2.008       .  S
O586       Cu591   2.006       .  S
O587       Cu592   2.002       .  S
O587        C596   1.277       .  A
O588       Cu592   2.004       .  S
O588        C595   1.278   1_565  A
O589       Cu592   2.002       .  S
O589        C594   1.278   1_565  A
O590       Cu592   2.012       .  S
O590        C593   1.278       .  A
C593        C802   1.495       .  S
C594        C778   1.489       .  S
C595        C682   1.486   1_545  S
C596        C701   1.476       .  S
O597       Cu605   2.014       .  S
O597        C607   1.279       .  A
O598       Cu605   2.012   1_556  S
O598        C608   1.280       .  A
O599       Cu605   2.009   1_556  S
O599        C609   1.277       .  A
O600       Cu605   2.007       .  S
O600        C610   1.278       .  A
O601       Cu606   2.006   1_554  S
O601        C610   1.277       .  A
O602       Cu606   2.001       .  S
O602        C609   1.277       .  A
O603       Cu606   2.002       .  S
O603        C608   1.276       .  A
O604       Cu606   1.996       .  S
O604        C607   1.276   1_556  A
Cu605      Cu606   2.370   1_554  S
C607        C821   1.482   1_554  S
C608        C845   1.492       .  S
C609        C634   1.476       .  S
C610        C653   1.474       .  S
O611       Cu619   2.008       .  S
O611        C621   1.278       .  A
O612       Cu619   2.010       .  S
O612        C622   1.278       .  A
O613       Cu619   2.010       .  S
O613        C623   1.279       .  A
O614       Cu619   2.008       .  S
O614        C624   1.278       .  A
O615       Cu620   2.007       .  S
O615        C624   1.277       .  A
O616       Cu620   2.007       .  S
O616        C623   1.277       .  A
O617       Cu620   2.007       .  S
O617        C622   1.279       .  A
O618       Cu620   2.006       .  S
O618        C621   1.278       .  A
Cu619      Cu620   2.365       .  S
C621        C629   1.488       .  S
C622        C658   1.491       .  S
C623        C754   1.493       .  S
C624        C730   1.488       .  S
C625        C626   1.409       .  A
C625        C630   1.401       .  A
C625        C639   1.444       .  S
C626        C631   1.485       .  S
C626        C627   1.402       .  A
C627        C628   1.399       .  A
C627        H646   1.085       .  S
C628        C629   1.417       .  A
C628        C640   1.444       .  S
C629        C630   1.408       .  A
C630        H645   1.084       .  S
C631        C632   1.404       .  A
C631        C636   1.411       .  A
C632        C633   1.401       .  A
C632        H647   1.085       .  S
C633        C634   1.413       .  A
C633        C637   1.444       .  S
C634        C635   1.403       .  A
C635        C636   1.397       .  A
C635        H648   1.085       .  S
C636        C638   1.444       .  S
C637        N641   1.157       .  T
C638        N642   1.157       .  T
C639        N644   1.157       .  T
C640        N643   1.157       .  T
C649        C650   1.411       .  A
C649        C654   1.401       .  A
C649        C663   1.444       .  S
C650        C655   1.485       .  S
C650        C651   1.404       .  A
C651        C652   1.399       .  A
C651        H670   1.085       .  S
C652        C653   1.410       .  A
C652        C664   1.444       .  S
C653        C654   1.404       .  A
C654        H669   1.085       .  S
C655        C656   1.402       .  A
C655        C660   1.408       .  A
C656        C657   1.402       .  A
C656        H671   1.085       .  S
C657        C658   1.419       .  A
C657        C661   1.444       .  S
C658        C659   1.408       .  A
C659        C660   1.399       .  A
C659        H672   1.084       .  S
C660        C662   1.444       .  S
C661        N665   1.157       .  T
C662        N666   1.157       .  T
C663        N668   1.157       .  T
C664        N667   1.157       .  T
C673        C674   1.410       .  A
C673        C678   1.401       .  A
C673        C687   1.444       .  S
C674        C679   1.482       .  S
C675        C676   1.399       .  A
C675        H694   1.085       .  S
C676        C677   1.412   1_545  A
C676        C688   1.444       .  S
C678        H693   1.085       .  S
C679        C684   1.409       .  A
C680        C681   1.401       .  A
C680        H695   1.085       .  S
C681        C682   1.418   1_545  A
C681        C685   1.444       .  S
C683        C684   1.399       .  A
C683        H696   1.085       .  S
C684        C686   1.444       .  S
C685        N689   1.157       .  T
C686        N690   1.157       .  T
C687        N692   1.157       .  T
C688        N691   1.157       .  T
C697        C698   1.412       .  A
C697        C702   1.399       .  A
C697        C711   1.444       .  S
C698        C703   1.483       .  S
C699        C700   1.399       .  A
C699        H718   1.085       .  S
C700        C701   1.413       .  A
C700        C712   1.445       .  S
C702        H717   1.085       .  S
C703        C708   1.409       .  A
C704        C705   1.400       .  A
C704        H719   1.085       .  S
C705        C706   1.419       .  A
C705        C709   1.444       .  S
C707        C708   1.399       .  A
C707        H720   1.084       .  S
C708        C710   1.444       .  S
C709        N713   1.157       .  T
C710        N714   1.157       .  T
C711        N716   1.157       .  T
C712        N715   1.157       .  T
C721        C722   1.410       .  A
C721        C726   1.400       .  A
C721        C735   1.443       .  S
C722        C727   1.482       .  S
C722        C723   1.403       .  A
C723        C724   1.400       .  A
C723        H742   1.085       .  S
C724        C725   1.409       .  A
C724        C736   1.443       .  S
C725        C726   1.402       .  A
C726        H741   1.085       .  S
C727        C728   1.401       .  A
C727        C732   1.408       .  A
C728        C729   1.401       .  A
C728        H743   1.085       .  S
C729        C730   1.418       .  A
C729        C733   1.444       .  S
C730        C731   1.408       .  A
C731        C732   1.400       .  A
C731        H744   1.084       .  S
C732        C734   1.444       .  S
C733        N737   1.157       .  T
C734        N738   1.157       .  T
C735        N740   1.157       .  T
C736        N739   1.157       .  T
C745        C746   1.409       .  A
C745        C750   1.398       .  A
C745        C759   1.444       .  S
C746        C751   1.478       .  S
C746        C747   1.401       .  A
C747        C748   1.399       .  A
C747        H766   1.085       .  S
C748        C749   1.411       .  A
C748        C760   1.443       .  S
C749        C750   1.403       .  A
C750        H765   1.084       .  S
C751        C752   1.398       .  A
C751        C756   1.406       .  A
C752        C753   1.399       .  A
C752        H767   1.085       .  S
C753        C754   1.421       .  A
C753        C757   1.444       .  S
C754        C755   1.411       .  A
C755        C756   1.401       .  A
C755        H768   1.084       .  S
C756        C758   1.445       .  S
C757        N761   1.157       .  T
C758        N762   1.157       .  T
C759        N764   1.157       .  T
C760        N763   1.157       .  T
C769        C774   1.398       .  A
C769        C783   1.443       .  S
C770        C775   1.478       .  S
C770        C771   1.401   1_545  A
C771        C772   1.400       .  A
C771        H790   1.085       .  S
C772        C773   1.410       .  A
C772        C784   1.442       .  S
C774        H789   1.084       .  S
C775        C780   1.406   1_545  A
C776        C777   1.402       .  A
C776        H791   1.085       .  S
C777        C781   1.444       .  S
C778        C779   1.409   1_545  A
C779        C780   1.398       .  A
C779        H792   1.084       .  S
C780        C782   1.444       .  S
C781        N785   1.157       .  T
C782        N786   1.157       .  T
C783        N788   1.157       .  T
C784        N787   1.157       .  T
C793        C794   1.409       .  A
C793        C798   1.401       .  A
C793        C807   1.443       .  S
C795        C796   1.402       .  A
C795        H814   1.085       .  S
C796        C808   1.443       .  S
C797        C798   1.404       .  A
C798        H813   1.084       .  S
C799        C804   1.407       .  A
C800        C801   1.403       .  A
C800        H815   1.085       .  S
C801        C802   1.421       .  A
C801        C805   1.444       .  S
C803        C804   1.402       .  A
C803        H816   1.084       .  S
C804        C806   1.444       .  S
C805        N809   1.157       .  T
C806        N810   1.157       .  T
C807        N812   1.157       .  T
C808        N811   1.157       .  T
C817        C818   1.408       .  A
C817        C822   1.401       .  A
C817        C831   1.444       .  S
C818        C823   1.478       .  S
C818        C819   1.398   1_554  A
C819        C820   1.398       .  A
C819        H838   1.084       .  S
C820        C821   1.417       .  A
C820        C832   1.444       .  S
C821        C822   1.407   1_556  A
C822        H837   1.084       .  S
C823        C824   1.401   1_554  A
C823        C828   1.408       .  A
C824        C825   1.399       .  A
C824        H839   1.085       .  S
C825        C826   1.411       .  A
C825        C829   1.443       .  S
C826        C827   1.403   1_556  A
C827        C828   1.397       .  A
C827        H840   1.084       .  S
C828        C830   1.443       .  S
C829        N833   1.157       .  T
C830        N834   1.157       .  T
C831        N836   1.157       .  T
C832        N835   1.157       .  T
C841        C842   1.406       .  A
C841        C846   1.399       .  A
C841        C855   1.444       .  S
C842        C847   1.479       .  S
C842        C843   1.399       .  A
C843        C844   1.401       .  A
C843        H862   1.085       .  S
C844        C845   1.421       .  A
C844        C856   1.444   1_556  S
C845        C846   1.409       .  A
C846        H861   1.084       .  S
C847        C848   1.402   1_556  A
C847        C852   1.409       .  A
C848        C849   1.398       .  A
C848        H863   1.084       .  S
C849        C850   1.409   1_554  A
C849        C853   1.443       .  S
C850        C851   1.403       .  A
C851        C852   1.399       .  A
C851        H864   1.084       .  S
C852        C854   1.444       .  S
C853        N857   1.157       .  T
C854        N858   1.157       .  T
C855        N860   1.157       .  T
C856        N859   1.157       .  T
C865        C866   1.410   1_554  A
C865        C870   1.398       .  A
C865        C879   1.443       .  S
C867        C868   1.400       .  A
C867        H886   1.084       .  S
C868        C869   1.409       .  A
C868        C880   1.442       .  S
C870        H885   1.084       .  S
C871        C876   1.408       .  A
C872        C873   1.402       .  A
C872        H887   1.085       .  S
C873        C877   1.444       .  S
C874        C875   1.408   1_554  A
C875        C876   1.399       .  A
C875        H888   1.084       .  S
C876        C878   1.444       .  S
C877        N881   1.157       .  T
C878        N882   1.157       .  T
C879        N884   1.157   1_545  T
C880        N883   1.157       .  T
C889        C894   1.399       .  A
C889        C903   1.445       .  S
C890        C895   1.483       .  S
C890        C891   1.402   1_546  A
C891        C892   1.402       .  A
C891        H910   1.084       .  S
C892        C904   1.444       .  S
C893        C894   1.408   1_554  A
C894        H909   1.084       .  S
C895        C900   1.411       .  A
C896        C897   1.400       .  A
C896        H911   1.084       .  S
C897        C901   1.442       .  S
C898        C899   1.402       .  A
C899        C900   1.400       .  A
C899        H912   1.084       .  S
C900        C902   1.444       .  S
C901        N905   1.157       .  T
C902        N906   1.157       .  T
C903        N908   1.157       .  T
C904        N907   1.157       .  T
C913        C914   1.412   1_455  A
C913        C918   1.400       .  A
C913        C927   1.444       .  S
C914        C919   1.485       .  S
C914       C1971   1.403       .  A
C915       C1970   1.403       .  A
C915        C916   1.400       .  A
C915        H934   1.085       .  S
C916        C917   1.409       .  A
C916        C928   1.443       .  S
C917       C1974   1.402       .  A
C918       C1973   1.402   1_455  A
C918        H933   1.084       .  S
C919        C920   1.402   1_655  A
C919       C1980   1.411       .  A
C920        C921   1.401       .  A
C920        H935   1.085       .  S
C921       C1978   1.415   1_455  A
C921        C925   1.445       .  S
C922       C1977   1.415       .  A
C922        C923   1.405       .  A
C923        C924   1.402       .  A
C923        H936   1.085       .  S
C924       C1975   1.411       .  A
C924        C926   1.444       .  S
C925        N929   1.157       .  T
C926        N930   1.157       .  T
C927        N932   1.157       .  T
C928        N931   1.157       .  T
C937        C938   1.412       .  A
C937        C942   1.403       .  A
C937        C951   1.444       .  S
C938        C943   1.486       .  S
C938       C1995   1.402       .  A
C939       C1994   1.402       .  A
C939        C940   1.401       .  A
C939        H958   1.085       .  S
C940       C1997   1.414       .  A
C940        C952   1.445       .  S
C941       C1996   1.414       .  A
C941        C942   1.404       .  A
C942        H957   1.085       .  S
C943        C944   1.402       .  A
C943       C2004   1.410       .  A
C944        C945   1.401       .  A
C944        H959   1.085       .  S
C945        C946   1.413       .  A
C945        C949   1.442       .  S
C946       C2003   1.406       .  A
C947       C2002   1.406       .  A
C947        C948   1.401       .  A
C947        H960   1.084       .  S
C948       C1999   1.410       .  A
C948        C950   1.444       .  S
C949        N953   1.157       .  T
C950        N954   1.157       .  T
C951        N956   1.157       .  T
C952        N955   1.157       .  T
C961        C962   1.412   1_455  A
C961        C966   1.401       .  A
C961        C975   1.444       .  S
C962        C967   1.483       .  S
C962       C2019   1.403       .  A
C963       C2018   1.403       .  A
C963        C964   1.399       .  A
C963        H982   1.085       .  S
C964        C965   1.410       .  A
C964        C976   1.445       .  S
C965       C2022   1.402       .  A
C966       C2021   1.402   1_455  A
C966        H981   1.085       .  S
C967        C968   1.400   1_655  A
C967       C2028   1.408       .  A
C968        C969   1.399       .  A
C968        H983   1.085       .  S
C969       C2026   1.420       .  A
C969        C973   1.444       .  S
C970       C1597   1.492       .  S
C970       C2025   1.420       .  A
C970        C971   1.410       .  A
C971        C972   1.401       .  A
C971        H984   1.084       .  S
C972       C2023   1.408       .  A
C972        C974   1.444       .  S
C973        N977   1.157       .  T
C974        N978   1.157       .  T
C975        N980   1.157       .  T
C976        N979   1.157       .  T
C985       C2042   1.410       .  A
C985        C990   1.400       .  A
C985        C999   1.444       .  S
C986        C991   1.488       .  S
C986       C2041   1.410       .  A
C986        C987   1.402       .  A
C987        C988   1.400       .  A
C987       H1006   1.085       .  S
C988        C989   1.420       .  A
C988       C1000   1.444       .  S
C989       C2046   1.408       .  A
C990       C2045   1.408   1_455  A
C990       H1005   1.084       .  S
C991       C2048   1.404       .  A
C991        C996   1.414       .  A
C992       C2047   1.404       .  A
C992        C993   1.399       .  A
C992       H1007   1.085       .  S
C993       C2050   1.411       .  A
C993        C997   1.445       .  S
C994       C1598   1.474       .  S
C994       C2049   1.411       .  A
C994        C995   1.402       .  A
C995        C996   1.400       .  A
C995       H1008   1.085       .  S
C996        C998   1.444       .  S
C997       N1001   1.157       .  T
C998       N1002   1.157       .  T
C999       N1004   1.157       .  T
C1000      N1003   1.157       .  T
C1009      C1010   1.408       .  A
C1009      C1014   1.401       .  A
C1009      C1023   1.445       .  S
C1010      C1015   1.478       .  S
C1010      C2067   1.399   1_456  A
C1011      C2066   1.399   1_554  A
C1011      C1012   1.399       .  A
C1011      H1030   1.085       .  S
C1012      C2069   1.417   1_554  A
C1012      C1024   1.444       .  S
C1013      C2068   1.417   1_456  A
C1013      C1014   1.407       .  A
C1014      H1029   1.084       .  S
C1015      C1016   1.402   1_556  A
C1015      C2076   1.408   1_455  A
C1016      C1017   1.400       .  A
C1016      H1031   1.085       .  S
C1017      C1018   1.411   1_454  A
C1017      C1021   1.443       .  S
C1018      C2075   1.402       .  A
C1019      C2074   1.402       .  A
C1019      C1020   1.397       .  A
C1019      H1032   1.084       .  S
C1020      C2071   1.408       .  A
C1020      C1022   1.443       .  S
C1021      N1025   1.157       .  T
C1022      N1026   1.157       .  T
C1023      N1028   1.157       .  T
C1024      N1027   1.157       .  T
C1033      C1034   1.409   1_554  A
C1033      C1038   1.399       .  A
C1033      C1047   1.443       .  S
C1034      C1039   1.483       .  S
C1034      C2091   1.403       .  A
C1035      C2090   1.403   1_655  A
C1035      C1036   1.401       .  A
C1035      H1054   1.084       .  S
C1036      C2093   1.410       .  A
C1036      C1048   1.443       .  S
C1037      C2092   1.410       .  A
C1037      C1038   1.402   1_556  A
C1038      H1053   1.084       .  S
C1039      C1040   1.400   1_556  A
C1039      C2100   1.408       .  A
C1040      C1041   1.400       .  A
C1040      H1055   1.085       .  S
C1041      C1042   1.418   1_554  A
C1041      C1045   1.444       .  S
C1042      C1596   1.489       .  S
C1042      C2099   1.408       .  A
C1043      C2098   1.408       .  A
C1043      C1044   1.403       .  A
C1043      H1056   1.084       .  S
C1044      C2095   1.408       .  A
C1044      C1046   1.444       .  S
C1045      N1049   1.157       .  T
C1046      N1050   1.157       .  T
C1047      N1052   1.157       .  T
C1048      N1051   1.157       .  T
O1057     Cu1065   2.006       .  S
O1058     Cu1065   2.006       .  S
O1059     Cu1065   2.011       .  S
O1060     Cu1065   2.007   1_554  S
O1061     Cu1066   2.004   1_554  S
O1061      C1070   1.277       .  A
O1062     Cu1066   2.003       .  S
O1062      C1069   1.277       .  A
O1063     Cu1066   2.020       .  S
O1063      C1068   1.279       .  A
O1064     Cu1066   2.009       .  S
O1064      C1067   1.278       .  A
C1067      C1541   1.484       .  S
O1071     Cu1079   2.022       .  S
O1071      C1081   1.280       .  A
O1072     Cu1079   2.017       .  S
O1072      C1082   1.279   1_655  A
O1073     Cu1079   2.001       .  S
O1073      C1083   1.276       .  A
O1074     Cu1079   1.998       .  S
O1074      C1084   1.276       .  A
O1075     Cu1080   2.011       .  S
O1076     Cu1080   2.014       .  S
O1077     Cu1080   2.006       .  S
O1078     Cu1080   1.999       .  S
C1081      C1450   1.484       .  S
C1082      C1469   1.481       .  S
C1083      C1517   1.492       .  S
C1084      C1493   1.470       .  S
C1085      C1378   1.484       .  S
C1085      C1086   1.413       .  A
C1085      C1090   1.413       .  A
C1086      C1565   1.489       .  S
C1087      C1397   1.487       .  S
C1087      C1088   1.412       .  A
C1088      C1354   1.488       .  S
C1088      C1089   1.415       .  A
C1089      C1546   1.487       .  S
C1090      C1426   1.488       .  S
C1091      C1253   1.487       .  S
C1091      C1620   1.414   1_545  A
C1092      C1301   1.488       .  S
C1092      C1619   1.414       .  A
C1093      C1474   1.498       .  S
C1093      C1094   1.419   1_455  A
C1094      C1277   1.488       .  S
C1094      C1095   1.416       .  A
C1095      C1325   1.493       .  S
C1095      C1624   1.413   1_655  A
C1096      C1445   1.489   1_455  S
C1096      C1623   1.413   1_445  A
O1097     Cu1105   2.008   1_556  S
O1097      C1635   1.277       .  A
O1098     Cu1105   2.004       .  S
O1098      C1636   1.277       .  A
O1099     Cu1105   2.014       .  S
O1099      C1637   1.279       .  A
O1100     Cu1105   2.018   1_556  S
O1100      C1638   1.279   1_556  A
O1101     Cu1106   1.997       .  S
O1101      C1110   1.277   1_545  A
O1102     Cu1106   2.004       .  S
O1102      C1109   1.278   1_545  A
O1103     Cu1106   2.008       .  S
O1103      C1108   1.279   1_545  A
O1104     Cu1106   2.007   1_556  S
O1104      C1107   1.278   1_545  A
Cu1105    Cu1634   2.369       .  S
Cu1106    Cu1633   2.369   1_545  S
C1107      O1625   1.277       .  A
C1107      C1733   1.475       .  S
C1108      O1626   1.277       .  A
C1108      C1762   1.488       .  S
C1109      O1627   1.279       .  A
C1109      C1402   1.489       .  S
C1110      O1628   1.279   1_554  A
C1110      C1421   1.486       .  S
O1111     Cu1119   2.017       .  S
O1111      C1649   1.280   1_545  A
O1112     Cu1119   2.014       .  S
O1112      C1650   1.278       .  A
O1113     Cu1119   2.008       .  S
O1113      C1651   1.278   1_545  A
O1114     Cu1119   2.006       .  S
O1114      C1652   1.277   1_545  A
O1115     Cu1120   2.002       .  S
O1115      C1124   1.277       .  A
O1116     Cu1120   2.004       .  S
O1116      C1123   1.278       .  A
O1117     Cu1120   2.002       .  S
O1117      C1122   1.278       .  A
O1118     Cu1120   2.012       .  S
O1118      C1121   1.278       .  A
Cu1119    Cu1648   2.368   1_545  S
Cu1120    Cu1647   2.368       .  S
C1121      O1639   1.280       .  A
C1121      C1330   1.495       .  S
C1122      O1640   1.278       .  A
C1122      C1306   1.489       .  S
C1123      O1641   1.278       .  A
C1123      C1210   1.486       .  S
C1124      O1642   1.277       .  A
C1124      C1229   1.476       .  S
O1125     Cu1133   2.015       .  S
O1125      C1135   1.279   1_554  A
O1126     Cu1133   2.013   1_556  S
O1126      C1136   1.280       .  A
O1127     Cu1133   2.009   1_556  S
O1127      C1137   1.277       .  A
O1128     Cu1133   2.007       .  S
O1128      C1138   1.278       .  A
O1129     Cu1134   2.006   1_554  S
O1129      C1138   1.277       .  A
O1130     Cu1134   2.001       .  S
O1130      C1137   1.277       .  A
O1131     Cu1134   2.002       .  S
O1131      C1136   1.276       .  A
O1132     Cu1134   1.996       .  S
O1132      C1135   1.276       .  A
Cu1133    Cu1134   2.370   1_554  S
C1135      C1349   1.483       .  S
C1136      C1373   1.492       .  S
C1137      C1162   1.476       .  S
C1138      C1181   1.474       .  S
O1139     Cu1147   2.008       .  S
O1139      C1149   1.278       .  A
O1140     Cu1147   2.010       .  S
O1140      C1150   1.278       .  A
O1141     Cu1147   2.010       .  S
O1141      C1151   1.278       .  A
O1142     Cu1147   2.008       .  S
O1142      C1152   1.278       .  A
O1143     Cu1148   2.007       .  S
O1143      C1152   1.277       .  A
O1144     Cu1148   2.007       .  S
O1144      C1151   1.277       .  A
O1145     Cu1148   2.007       .  S
O1145      C1150   1.279       .  A
O1146     Cu1148   2.006       .  S
O1146      C1149   1.278       .  A
Cu1147    Cu1148   2.365       .  S
C1149      C1157   1.488       .  S
C1150      C1186   1.491       .  S
C1151      C1282   1.493       .  S
C1152      C1258   1.488       .  S
C1153      C1154   1.409       .  A
C1153      C1158   1.401       .  A
C1153      C1167   1.444       .  S
C1154      C1159   1.485       .  S
C1154      C1155   1.402       .  A
C1155      C1156   1.399       .  A
C1155      H1174   1.085       .  S
C1156      C1157   1.417       .  A
C1156      C1168   1.444       .  S
C1157      C1158   1.408       .  A
C1158      H1173   1.084       .  S
C1159      C1160   1.404       .  A
C1159      C1164   1.411       .  A
C1160      C1161   1.401       .  A
C1160      H1175   1.085       .  S
C1161      C1162   1.413       .  A
C1161      C1165   1.444       .  S
C1162      C1163   1.403       .  A
C1163      C1164   1.397       .  A
C1163      H1176   1.085       .  S
C1164      C1166   1.444       .  S
C1165      N1169   1.157       .  T
C1166      N1170   1.157       .  T
C1167      N1172   1.157       .  T
C1168      N1171   1.157       .  T
C1177      C1178   1.411       .  A
C1177      C1182   1.401       .  A
C1177      C1191   1.444       .  S
C1178      C1183   1.485       .  S
C1178      C1179   1.404       .  A
C1179      C1180   1.399       .  A
C1179      H1198   1.085       .  S
C1180      C1181   1.410       .  A
C1180      C1192   1.444       .  S
C1181      C1182   1.404       .  A
C1182      H1197   1.085       .  S
C1183      C1184   1.402       .  A
C1183      C1188   1.408       .  A
C1184      C1185   1.402       .  A
C1184      H1199   1.085       .  S
C1185      C1186   1.419       .  A
C1185      C1189   1.444       .  S
C1186      C1187   1.408       .  A
C1187      C1188   1.399       .  A
C1187      H1200   1.084       .  S
C1188      C1190   1.444       .  S
C1189      N1193   1.157       .  T
C1190      N1194   1.157       .  T
C1191      N1196   1.157       .  T
C1192      N1195   1.157       .  T
C1201      C1202   1.410       .  A
C1201      C1206   1.401       .  A
C1201      C1215   1.444       .  S
C1202      C1207   1.482       .  S
C1202      C1731   1.402   1_565  A
C1203      C1730   1.402       .  A
C1203      C1204   1.400       .  A
C1203      H1222   1.085       .  S
C1204      C1205   1.412       .  A
C1204      C1216   1.444       .  S
C1205      C1635   1.475       .  S
C1205      C1734   1.404       .  A
C1206      C1733   1.404       .  A
C1206      H1221   1.085       .  S
C1207      C1736   1.401   1_565  A
C1207      C1212   1.409       .  A
C1208      C1735   1.401       .  A
C1208      C1209   1.401       .  A
C1208      H1223   1.085       .  S
C1209      C1210   1.418       .  A
C1209      C1213   1.444       .  S
C1210      C1739   1.407       .  A
C1211      C1738   1.407       .  A
C1211      C1212   1.399       .  A
C1211      H1224   1.085       .  S
C1212      C1214   1.444       .  S
C1213      N1217   1.157       .  T
C1214      N1218   1.157       .  T
C1215      N1220   1.157       .  T
C1216      N1219   1.157       .  T
C1225      C1226   1.412       .  A
C1225      C1230   1.400       .  A
C1225      C1239   1.444       .  S
C1226      C1231   1.484   1_545  S
C1226      C1755   1.403   1_545  A
C1227      C1754   1.402       .  A
C1227      C1228   1.399       .  A
C1227      H1246   1.085       .  S
C1228      C1229   1.413       .  A
C1228      C1240   1.445       .  S
C1229      C1758   1.403       .  A
C1230      C1757   1.403   1_545  A
C1230      H1245   1.085       .  S
C1231      C1760   1.401       .  A
C1231      C1236   1.409   1_565  A
C1232      C1759   1.401       .  A
C1232      C1233   1.400       .  A
C1232      H1247   1.085       .  S
C1233      C1234   1.418       .  A
C1233      C1237   1.444       .  S
C1234      C1636   1.488       .  S
C1234      C1763   1.407       .  A
C1235      C1762   1.408   1_545  A
C1235      C1236   1.399       .  A
C1235      H1248   1.084       .  S
C1236      C1238   1.444       .  S
C1237      N1241   1.157       .  T
C1238      N1242   1.157       .  T
C1239      N1244   1.157       .  T
C1240      N1243   1.157       .  T
C1249      C1250   1.410       .  A
C1249      C1254   1.399       .  A
C1249      C1263   1.443       .  S
C1250      C1255   1.482       .  S
C1250      C1251   1.403       .  A
C1251      C1252   1.400       .  A
C1251      H1270   1.085       .  S
C1252      C1253   1.409       .  A
C1252      C1264   1.443       .  S
C1253      C1254   1.402       .  A
C1254      H1269   1.085       .  S
C1255      C1256   1.401       .  A
C1255      C1260   1.408       .  A
C1256      C1257   1.401       .  A
C1256      H1271   1.085       .  S
C1257      C1258   1.418       .  A
C1257      C1261   1.444       .  S
C1258      C1259   1.408       .  A
C1259      C1260   1.400       .  A
C1259      H1272   1.084       .  S
C1260      C1262   1.444       .  S
C1261      N1265   1.157       .  T
C1262      N1266   1.157       .  T
C1263      N1268   1.157       .  T
C1264      N1267   1.157       .  T
C1273      C1274   1.409       .  A
C1273      C1278   1.397       .  A
C1273      C1287   1.444       .  S
C1274      C1279   1.478       .  S
C1274      C1275   1.401       .  A
C1275      C1276   1.399       .  A
C1275      H1294   1.085       .  S
C1276      C1277   1.411       .  A
C1276      C1288   1.443       .  S
C1277      C1278   1.403       .  A
C1278      H1293   1.084       .  S
C1279      C1280   1.398       .  A
C1279      C1284   1.406       .  A
C1280      C1281   1.399       .  A
C1280      H1295   1.085       .  S
C1281      C1282   1.421       .  A
C1281      C1285   1.444       .  S
C1282      C1283   1.411       .  A
C1283      C1284   1.401       .  A
C1283      H1296   1.084       .  S
C1284      C1286   1.445       .  S
C1285      N1289   1.157       .  T
C1286      N1290   1.157       .  T
C1287      N1292   1.157       .  T
C1288      N1291   1.157       .  T
C1297      C1826   1.407       .  A
C1297      C1302   1.398       .  A
C1297      C1311   1.443       .  S
C1298      C1303   1.478       .  S
C1298      C1825   1.407       .  A
C1298      C1299   1.401       .  A
C1299      C1300   1.400       .  A
C1299      H1318   1.085       .  S
C1300      C1301   1.410       .  A
C1300      C1312   1.442       .  S
C1301      C1830   1.404       .  A
C1302      C1829   1.404   1_545  A
C1302      H1317   1.084       .  S
C1303      C1832   1.400       .  A
C1303      C1308   1.406       .  A
C1304      C1831   1.400       .  A
C1304      C1305   1.402       .  A
C1304      H1319   1.085       .  S
C1305      C1834   1.419       .  A
C1305      C1309   1.444       .  S
C1306      C1833   1.419       .  A
C1306      C1307   1.409       .  A
C1307      C1308   1.398       .  A
C1307      H1320   1.084       .  S
C1308      C1310   1.444       .  S
C1309      N1313   1.157       .  T
C1310      N1314   1.157       .  T
C1311      N1316   1.157       .  T
C1312      N1315   1.157       .  T
C1321      C1322   1.409       .  A
C1321      C1326   1.401       .  A
C1321      C1335   1.443       .  S
C1322      C1855   1.484       .  S
C1322      C1851   1.402       .  A
C1323      C1850   1.402       .  A
C1323      C1324   1.402       .  A
C1323      H1342   1.085   1_565  S
C1324      C1853   1.411       .  A
C1324      C1336   1.443   1_565  S
C1325      C1852   1.411       .  A
C1325      C1326   1.404       .  A
C1326      H1341   1.084       .  S
C1327      C1850   1.484       .  S
C1327      C1856   1.400       .  A
C1327      C1332   1.407   1_565  A
C1328      C1855   1.400       .  A
C1328      C1329   1.403       .  A
C1328      H1343   1.085       .  S
C1329      C1330   1.421       .  A
C1329      C1333   1.444       .  S
C1330      C1859   1.410       .  A
C1331      C1858   1.410   1_545  A
C1331      C1332   1.402       .  A
C1331      H1344   1.084       .  S
C1332      C1334   1.444       .  S
C1333      N1337   1.157       .  T
C1334      N1338   1.157       .  T
C1335      N1340   1.157       .  T
C1336      N1339   1.157       .  T
C1345      C1346   1.408       .  A
C1345      C1350   1.402       .  A
C1345      C1359   1.444       .  S
C1346      C1351   1.478       .  S
C1346      C1347   1.398   1_554  A
C1347      C1348   1.398       .  A
C1347      H1366   1.084       .  S
C1348      C1349   1.417       .  A
C1348      C1360   1.444       .  S
C1349      C1350   1.407   1_556  A
C1350      H1365   1.084       .  S
C1351      C1352   1.401   1_554  A
C1351      C1356   1.408       .  A
C1352      C1353   1.399       .  A
C1352      H1367   1.085       .  S
C1353      C1354   1.411       .  A
C1353      C1357   1.443       .  S
C1354      C1355   1.403   1_556  A
C1355      C1356   1.397       .  A
C1355      H1368   1.084       .  S
C1356      C1358   1.443       .  S
C1357      N1361   1.157       .  T
C1358      N1362   1.157       .  T
C1359      N1364   1.157       .  T
C1360      N1363   1.157       .  T
C1369      C1370   1.406       .  A
C1369      C1374   1.399       .  A
C1369      C1383   1.444       .  S
C1370      C1375   1.479       .  S
C1370      C1371   1.399       .  A
C1371      C1372   1.401       .  A
C1371      H1390   1.085       .  S
C1372      C1373   1.421       .  A
C1372      C1384   1.444   1_556  S
C1373      C1374   1.409       .  A
C1374      H1389   1.084       .  S
C1375      C1376   1.402   1_556  A
C1375      C1380   1.409       .  A
C1376      C1377   1.398       .  A
C1376      H1391   1.084       .  S
C1377      C1378   1.409   1_554  A
C1377      C1381   1.443       .  S
C1378      C1379   1.403       .  A
C1379      C1380   1.399       .  A
C1379      H1392   1.084       .  S
C1380      C1382   1.444       .  S
C1381      N1385   1.157       .  T
C1382      N1386   1.157       .  T
C1383      N1388   1.157       .  T
C1384      N1387   1.157       .  T
C1393      C1394   1.410   1_554  A
C1393      C1398   1.398       .  A
C1393      C1407   1.443       .  S
C1394      C1927   1.484       .  S
C1394      C1923   1.404       .  A
C1395      C1922   1.404       .  A
C1395      C1396   1.400       .  A
C1395      H1414   1.084       .  S
C1396      C1397   1.409       .  A
C1396      C1408   1.442       .  S
C1397      C1926   1.402   1_556  A
C1398      C1925   1.402   1_554  A
C1398      H1413   1.084       .  S
C1399      C1922   1.483       .  S
C1399      C1928   1.402   1_546  A
C1399      C1404   1.408       .  A
C1400      C1927   1.402   1_554  A
C1400      C1401   1.401       .  A
C1400      H1415   1.085       .  S
C1401      C1930   1.418       .  A
C1401      C1405   1.444       .  S
C1402      C1929   1.418       .  A
C1402      C1403   1.408   1_564  A
C1403      C1404   1.399       .  A
C1403      H1416   1.084       .  S
C1404      C1406   1.444       .  S
C1405      N1409   1.157       .  T
C1406      N1410   1.157       .  T
C1407      N1412   1.157       .  T
C1408      N1411   1.157       .  T
C1417      C1946   1.408       .  A
C1417      C1422   1.399       .  A
C1417      C1431   1.445       .  S
C1418      C1423   1.483       .  S
C1418      C1945   1.408       .  A
C1418      C1419   1.402   1_556  A
C1419      C1420   1.402       .  A
C1419      H1438   1.084       .  S
C1420      C1949   1.416       .  A
C1420      C1432   1.444       .  S
C1421      C1948   1.416       .  A
C1421      C1422   1.408   1_564  A
C1422      H1437   1.084       .  S
C1423      C1952   1.402   1_556  A
C1423      C1428   1.411       .  A
C1424      C1951   1.402   1_554  A
C1424      C1425   1.400       .  A
C1424      H1439   1.084       .  S
C1425      C1954   1.410   1_554  A
C1425      C1429   1.442       .  S
C1426      C1953   1.410   1_556  A
C1426      C1427   1.402       .  A
C1427      C1428   1.399       .  A
C1427      H1440   1.084       .  S
C1428      C1430   1.444       .  S
C1429      N1433   1.157       .  T
C1430      N1434   1.157       .  T
C1431      N1436   1.157       .  T
C1432      N1435   1.157       .  T
C1441      C1442   1.412       .  A
C1441      C1446   1.400       .  A
C1441      C1455   1.444       .  S
C1442      C1447   1.486       .  S
C1443      C1444   1.400       .  A
C1443      H1462   1.085       .  S
C1444      C1445   1.409       .  A
C1444      C1456   1.443       .  S
C1446      H1461   1.084       .  S
C1447      C1448   1.402       .  A
C1448      C1449   1.401       .  A
C1448      H1463   1.085       .  S
C1449      C1453   1.445       .  S
C1450      C1451   1.405       .  A
C1451      C1452   1.402       .  A
C1451      H1464   1.085       .  S
C1452      C1454   1.444       .  S
C1453      N1457   1.157       .  T
C1454      N1458   1.157       .  T
C1455      N1460   1.157       .  T
C1456      N1459   1.157       .  T
C1465      C1466   1.412   1_655  A
C1465      C1470   1.403       .  A
C1465      C1479   1.444       .  S
C1466      C1471   1.486       .  S
C1467      C1468   1.401       .  A
C1467      H1486   1.085       .  S
C1468      C1480   1.445       .  S
C1469      C1470   1.404   1_455  A
C1470      H1485   1.085       .  S
C1471      C1472   1.402   1_455  A
C1472      C1473   1.401       .  A
C1472      H1487   1.085       .  S
C1473      C1474   1.413   1_655  A
C1473      C1477   1.442       .  S
C1475      C1476   1.401       .  A
C1475      H1488   1.084       .  S
C1476      C1478   1.444       .  S
C1477      N1481   1.157       .  T
C1478      N1482   1.157       .  T
C1479      N1484   1.157       .  T
C1480      N1483   1.157       .  T
C1489      C1490   1.412       .  A
C1489      C1494   1.401       .  A
C1489      C1503   1.444       .  S
C1490      C1495   1.483       .  S
C1491      C1492   1.399       .  A
C1491      H1510   1.085       .  S
C1492      C1493   1.410       .  A
C1492      C1504   1.445       .  S
C1494      H1509   1.085       .  S
C1495      C1496   1.400       .  A
C1496      C1497   1.399       .  A
C1496      H1511   1.085       .  S
C1497      C1501   1.444       .  S
C1498      C1499   1.410   1_455  A
C1499      C1500   1.401       .  A
C1499      H1512   1.084       .  S
C1500      C1502   1.444       .  S
C1501      N1505   1.157       .  T
C1502      N1506   1.157       .  T
C1503      N1508   1.157       .  T
C1504      N1507   1.157       .  T
C1513      C1518   1.400       .  A
C1513      C1527   1.444       .  S
C1514      C1519   1.488       .  S
C1514      C1515   1.402   1_455  A
C1515      C1516   1.400       .  A
C1515      H1534   1.085       .  S
C1516      C1517   1.420       .  A
C1516      C1528   1.444       .  S
C1518      H1533   1.084       .  S
C1519      C1524   1.414   1_455  A
C1520      C1521   1.399       .  A
C1520      H1535   1.085       .  S
C1521      C1525   1.445       .  S
C1522      C1523   1.402   1_455  A
C1523      C1524   1.400       .  A
C1523      H1536   1.085       .  S
C1524      C1526   1.444       .  S
C1525      N1529   1.157       .  T
C1526      N1530   1.157       .  T
C1527      N1532   1.157       .  T
C1528      N1531   1.157       .  T
C1537      C1538   1.408       .  A
C1537      C1542   1.401       .  A
C1537      C1551   1.445       .  S
C1538      C1543   1.478       .  S
C1539      C1540   1.399       .  A
C1539      H1558   1.085       .  S
C1540      C1552   1.444       .  S
C1541      C1542   1.407       .  A
C1542      H1557   1.084       .  S
C1543      C1544   1.402   1_556  A
C1544      C1545   1.400       .  A
C1544      H1559   1.085       .  S
C1545      C1546   1.411   1_554  A
C1545      C1549   1.443       .  S
C1547      C1548   1.397       .  A
C1547      H1560   1.084       .  S
C1548      C1550   1.443       .  S
C1549      N1553   1.157       .  T
C1550      N1554   1.157       .  T
C1551      N1556   1.157       .  T
C1552      N1555   1.157       .  T
C1561      C1562   1.409   1_554  A
C1561      C1566   1.399       .  A
C1561      C1575   1.443       .  S
C1562      C1567   1.483       .  S
C1563      C1564   1.401       .  A
C1563      H1582   1.084       .  S
C1564      C1576   1.443       .  S
C1565      C1566   1.402   1_656  A
C1566      H1581   1.084       .  S
C1567      C1568   1.400   1_456  A
C1568      C1569   1.400       .  A
C1568      H1583   1.085       .  S
C1569      C1570   1.418   1_654  A
C1569      C1573   1.444       .  S
C1571      C1572   1.403       .  A
C1571      H1584   1.084       .  S
C1572      C1574   1.444       .  S
C1573      N1577   1.157       .  T
C1574      N1578   1.157       .  T
C1575      N1580   1.157       .  T
C1576      N1579   1.157       .  T
O1585     Cu1593   2.006       .  S
O1586     Cu1593   2.006       .  S
O1587     Cu1593   2.011       .  S
O1588     Cu1593   2.006   1_554  S
O1589     Cu1594   2.005   1_554  S
O1589      C1598   1.277       .  A
O1590     Cu1594   2.003       .  S
O1590      C1597   1.277       .  A
O1591     Cu1594   2.019       .  S
O1591      C1596   1.279       .  A
O1592     Cu1594   2.009       .  S
O1592      C1595   1.278       .  A
C1595      C2069   1.484       .  S
O1599     Cu1607   2.022       .  S
O1599      C1609   1.280       .  A
O1600     Cu1607   2.017       .  S
O1600      C1610   1.279       .  A
O1601     Cu1607   2.001       .  S
O1601      C1611   1.276       .  A
O1602     Cu1607   1.998       .  S
O1602      C1612   1.276       .  A
O1603     Cu1608   2.011       .  S
O1604     Cu1608   2.014       .  S
O1605     Cu1608   2.006       .  S
O1606     Cu1608   1.999       .  S
C1609      C1978   1.484       .  S
C1610      C1997   1.481   1_655  S
C1611      C2045   1.492       .  S
C1612      C2021   1.470       .  S
C1613      C1906   1.484       .  S
C1613      C1614   1.413       .  A
C1613      C1618   1.413   1_565  A
C1614      C2093   1.489       .  S
C1615      C1925   1.487       .  S
C1615      C1616   1.412       .  A
C1616      C1882   1.488       .  S
C1616      C1617   1.415       .  A
C1617      C2074   1.487       .  S
C1618      C1954   1.488       .  S
C1619      C1781   1.487       .  S
C1620      C1829   1.488       .  S
C1621      C2002   1.498       .  S
C1621      C1622   1.419   1_455  A
C1622      C1805   1.488       .  S
C1622      C1623   1.416       .  A
C1623      C1853   1.493       .  S
C1624      C1973   1.489   1_455  S
O1625     Cu1633   2.008   1_556  S
O1626     Cu1633   2.004       .  S
O1627     Cu1633   2.015       .  S
O1628     Cu1633   2.019   1_556  S
O1629     Cu1634   1.997       .  S
O1629      C1638   1.277       .  A
O1630     Cu1634   2.004       .  S
O1630      C1637   1.278       .  A
O1631     Cu1634   2.007       .  S
O1631      C1636   1.279       .  A
O1632     Cu1634   2.007   1_556  S
O1632      C1635   1.278       .  A
C1637      C1930   1.489       .  S
C1638      C1949   1.486       .  S
O1639     Cu1647   2.017       .  S
O1640     Cu1647   2.014       .  S
O1641     Cu1647   2.008       .  S
O1642     Cu1647   2.006       .  S
O1643     Cu1648   2.002       .  S
O1643      C1652   1.277       .  A
O1644     Cu1648   2.004       .  S
O1644      C1651   1.278       .  A
O1645     Cu1648   2.002       .  S
O1645      C1650   1.278   1_565  A
O1646     Cu1648   2.012       .  S
O1646      C1649   1.278       .  A
C1649      C1858   1.495       .  S
C1650      C1834   1.489       .  S
C1651      C1738   1.486       .  S
C1652      C1757   1.475       .  S
O1653     Cu1661   2.014       .  S
O1653      C1663   1.279       .  A
O1654     Cu1661   2.012   1_556  S
O1654      C1664   1.280       .  A
O1655     Cu1661   2.009   1_556  S
O1655      C1665   1.277       .  A
O1656     Cu1661   2.007       .  S
O1656      C1666   1.278       .  A
O1657     Cu1662   2.006   1_554  S
O1657      C1666   1.277       .  A
O1658     Cu1662   2.001       .  S
O1658      C1665   1.277       .  A
O1659     Cu1662   2.002       .  S
O1659      C1664   1.276       .  A
O1660     Cu1662   1.996       .  S
O1660      C1663   1.276   1_556  A
Cu1661    Cu1662   2.370   1_554  S
C1663      C1877   1.482   1_554  S
C1664      C1901   1.492       .  S
C1665      C1690   1.476       .  S
C1666      C1709   1.474       .  S
O1667     Cu1675   2.008       .  S
O1667      C1677   1.278       .  A
O1668     Cu1675   2.010       .  S
O1668      C1678   1.278       .  A
O1669     Cu1675   2.010       .  S
O1669      C1679   1.279       .  A
O1670     Cu1675   2.008       .  S
O1670      C1680   1.278       .  A
O1671     Cu1676   2.007       .  S
O1671      C1680   1.277       .  A
O1672     Cu1676   2.007       .  S
O1672      C1679   1.277       .  A
O1673     Cu1676   2.007       .  S
O1673      C1678   1.279       .  A
O1674     Cu1676   2.006       .  S
O1674      C1677   1.278       .  A
Cu1675    Cu1676   2.365       .  S
C1677      C1685   1.488       .  S
C1678      C1714   1.491       .  S
C1679      C1810   1.493       .  S
C1680      C1786   1.488       .  S
C1681      C1682   1.409       .  A
C1681      C1686   1.401       .  A
C1681      C1695   1.444       .  S
C1682      C1687   1.485       .  S
C1682      C1683   1.402       .  A
C1683      C1684   1.399       .  A
C1683      H1702   1.085       .  S
C1684      C1685   1.417       .  A
C1684      C1696   1.444       .  S
C1685      C1686   1.408       .  A
C1686      H1701   1.084       .  S
C1687      C1688   1.404       .  A
C1687      C1692   1.411       .  A
C1688      C1689   1.401       .  A
C1688      H1703   1.085       .  S
C1689      C1690   1.413       .  A
C1689      C1693   1.444       .  S
C1690      C1691   1.403       .  A
C1691      C1692   1.397       .  A
C1691      H1704   1.085       .  S
C1692      C1694   1.444       .  S
C1693      N1697   1.157       .  T
C1694      N1698   1.157       .  T
C1695      N1700   1.157       .  T
C1696      N1699   1.157       .  T
C1705      C1706   1.411       .  A
C1705      C1710   1.401       .  A
C1705      C1719   1.444       .  S
C1706      C1711   1.485       .  S
C1706      C1707   1.404       .  A
C1707      C1708   1.399       .  A
C1707      H1726   1.085       .  S
C1708      C1709   1.410       .  A
C1708      C1720   1.444       .  S
C1709      C1710   1.404       .  A
C1710      H1725   1.085       .  S
C1711      C1712   1.402       .  A
C1711      C1716   1.408       .  A
C1712      C1713   1.402       .  A
C1712      H1727   1.085       .  S
C1713      C1714   1.419       .  A
C1713      C1717   1.444       .  S
C1714      C1715   1.408       .  A
C1715      C1716   1.399       .  A
C1715      H1728   1.084       .  S
C1716      C1718   1.444       .  S
C1717      N1721   1.157       .  T
C1718      N1722   1.157       .  T
C1719      N1724   1.157       .  T
C1720      N1723   1.157       .  T
C1729      C1730   1.410       .  A
C1729      C1734   1.401       .  A
C1729      C1743   1.444       .  S
C1730      C1735   1.482       .  S
C1731      C1732   1.399       .  A
C1731      H1750   1.085       .  S
C1732      C1733   1.412   1_545  A
C1732      C1744   1.444       .  S
C1734      H1749   1.085       .  S
C1735      C1740   1.409       .  A
C1736      C1737   1.401       .  A
C1736      H1751   1.085       .  S
C1737      C1738   1.418   1_545  A
C1737      C1741   1.444       .  S
C1739      C1740   1.399       .  A
C1739      H1752   1.085       .  S
C1740      C1742   1.444       .  S
C1741      N1745   1.157       .  T
C1742      N1746   1.157       .  T
C1743      N1748   1.157       .  T
C1744      N1747   1.157       .  T
C1753      C1754   1.412       .  A
C1753      C1758   1.399       .  A
C1753      C1767   1.444       .  S
C1754      C1759   1.484       .  S
C1755      C1756   1.399       .  A
C1755      H1774   1.085       .  S
C1756      C1757   1.413       .  A
C1756      C1768   1.445       .  S
C1758      H1773   1.085       .  S
C1759      C1764   1.409       .  A
C1760      C1761   1.400       .  A
C1760      H1775   1.085       .  S
C1761      C1762   1.419       .  A
C1761      C1765   1.444       .  S
C1763      C1764   1.399       .  A
C1763      H1776   1.084       .  S
C1764      C1766   1.444       .  S
C1765      N1769   1.157       .  T
C1766      N1770   1.157       .  T
C1767      N1772   1.157       .  T
C1768      N1771   1.157       .  T
C1777      C1778   1.410       .  A
C1777      C1782   1.400       .  A
C1777      C1791   1.443       .  S
C1778      C1783   1.482       .  S
C1778      C1779   1.403       .  A
C1779      C1780   1.400       .  A
C1779      H1798   1.085       .  S
C1780      C1781   1.409       .  A
C1780      C1792   1.443       .  S
C1781      C1782   1.402       .  A
C1782      H1797   1.085       .  S
C1783      C1784   1.401       .  A
C1783      C1788   1.408       .  A
C1784      C1785   1.401       .  A
C1784      H1799   1.085       .  S
C1785      C1786   1.418       .  A
C1785      C1789   1.444       .  S
C1786      C1787   1.408       .  A
C1787      C1788   1.400       .  A
C1787      H1800   1.084       .  S
C1788      C1790   1.444       .  S
C1789      N1793   1.157       .  T
C1790      N1794   1.157       .  T
C1791      N1796   1.157       .  T
C1792      N1795   1.157       .  T
C1801      C1802   1.409       .  A
C1801      C1806   1.398       .  A
C1801      C1815   1.444       .  S
C1802      C1807   1.478       .  S
C1802      C1803   1.401       .  A
C1803      C1804   1.399       .  A
C1803      H1822   1.085       .  S
C1804      C1805   1.411       .  A
C1804      C1816   1.443       .  S
C1805      C1806   1.403       .  A
C1806      H1821   1.084       .  S
C1807      C1808   1.398       .  A
C1807      C1812   1.406       .  A
C1808      C1809   1.399       .  A
C1808      H1823   1.085       .  S
C1809      C1810   1.421       .  A
C1809      C1813   1.444       .  S
C1810      C1811   1.411       .  A
C1811      C1812   1.401       .  A
C1811      H1824   1.084       .  S
C1812      C1814   1.445       .  S
C1813      N1817   1.157       .  T
C1814      N1818   1.157       .  T
C1815      N1820   1.157       .  T
C1816      N1819   1.157       .  T
C1825      C1830   1.398       .  A
C1825      C1839   1.443       .  S
C1826      C1831   1.478       .  S
C1826      C1827   1.401   1_545  A
C1827      C1828   1.400       .  A
C1827      H1846   1.085       .  S
C1828      C1829   1.410       .  A
C1828      C1840   1.442       .  S
C1830      H1845   1.084       .  S
C1831      C1836   1.406   1_545  A
C1832      C1833   1.402       .  A
C1832      H1847   1.085       .  S
C1833      C1837   1.444       .  S
C1834      C1835   1.409   1_545  A
C1835      C1836   1.398       .  A
C1835      H1848   1.084       .  S
C1836      C1838   1.444       .  S
C1837      N1841   1.157       .  T
C1838      N1842   1.157       .  T
C1839      N1844   1.157       .  T
C1840      N1843   1.157       .  T
C1849      C1850   1.409       .  A
C1849      C1854   1.401       .  A
C1849      C1863   1.443       .  S
C1851      C1852   1.402       .  A
C1851      H1870   1.085       .  S
C1852      C1864   1.443       .  S
C1853      C1854   1.404       .  A
C1854      H1869   1.084       .  S
C1855      C1860   1.407       .  A
C1856      C1857   1.403       .  A
C1856      H1871   1.085       .  S
C1857      C1858   1.421       .  A
C1857      C1861   1.444       .  S
C1859      C1860   1.402       .  A
C1859      H1872   1.084       .  S
C1860      C1862   1.444       .  S
C1861      N1865   1.157       .  T
C1862      N1866   1.157       .  T
C1863      N1868   1.157       .  T
C1864      N1867   1.157       .  T
C1873      C1874   1.408       .  A
C1873      C1878   1.401       .  A
C1873      C1887   1.444       .  S
C1874      C1879   1.478       .  S
C1874      C1875   1.398   1_554  A
C1875      C1876   1.398       .  A
C1875      H1894   1.084       .  S
C1876      C1877   1.417       .  A
C1876      C1888   1.444       .  S
C1877      C1878   1.407   1_556  A
C1878      H1893   1.084       .  S
C1879      C1880   1.401   1_554  A
C1879      C1884   1.408       .  A
C1880      C1881   1.398       .  A
C1880      H1895   1.085       .  S
C1881      C1882   1.411       .  A
C1881      C1885   1.443       .  S
C1882      C1883   1.403   1_556  A
C1883      C1884   1.397       .  A
C1883      H1896   1.084       .  S
C1884      C1886   1.443       .  S
C1885      N1889   1.157       .  T
C1886      N1890   1.157       .  T
C1887      N1892   1.157       .  T
C1888      N1891   1.157       .  T
C1897      C1898   1.406       .  A
C1897      C1902   1.399       .  A
C1897      C1911   1.444       .  S
C1898      C1903   1.479       .  S
C1898      C1899   1.399       .  A
C1899      C1900   1.400       .  A
C1899      H1918   1.085       .  S
C1900      C1901   1.421       .  A
C1900      C1912   1.444       .  S
C1901      C1902   1.409       .  A
C1902      H1917   1.084       .  S
C1903      C1904   1.402   1_556  A
C1903      C1908   1.409       .  A
C1904      C1905   1.398       .  A
C1904      H1919   1.084       .  S
C1905      C1906   1.409   1_554  A
C1905      C1909   1.443       .  S
C1906      C1907   1.403       .  A
C1907      C1908   1.399       .  A
C1907      H1920   1.084       .  S
C1908      C1910   1.444       .  S
C1909      N1913   1.157       .  T
C1910      N1914   1.157       .  T
C1911      N1916   1.157       .  T
C1912      N1915   1.157   1_556  T
C1921      C1922   1.410   1_554  A
C1921      C1926   1.398       .  A
C1921      C1935   1.443       .  S
C1923      C1924   1.400       .  A
C1923      H1942   1.084       .  S
C1924      C1925   1.409       .  A
C1924      C1936   1.442       .  S
C1926      H1941   1.084       .  S
C1927      C1932   1.408       .  A
C1928      C1929   1.402       .  A
C1928      H1943   1.085       .  S
C1929      C1933   1.444       .  S
C1930      C1931   1.408   1_554  A
C1931      C1932   1.399       .  A
C1931      H1944   1.084       .  S
C1932      C1934   1.444       .  S
C1933      N1937   1.157       .  T
C1934      N1938   1.157       .  T
C1935      N1940   1.157   1_545  T
C1936      N1939   1.157       .  T
C1945      C1950   1.399       .  A
C1945      C1959   1.445       .  S
C1946      C1951   1.483       .  S
C1946      C1947   1.402   1_546  A
C1947      C1948   1.402       .  A
C1947      H1966   1.084       .  S
C1948      C1960   1.444       .  S
C1949      C1950   1.408   1_554  A
C1950      H1965   1.084       .  S
C1951      C1956   1.411       .  A
C1952      C1953   1.400       .  A
C1952      H1967   1.084       .  S
C1953      C1957   1.442       .  S
C1954      C1955   1.402       .  A
C1955      C1956   1.399       .  A
C1955      H1968   1.084       .  S
C1956      C1958   1.444       .  S
C1957      N1961   1.157       .  T
C1958      N1962   1.157       .  T
C1959      N1964   1.157       .  T
C1960      N1963   1.157       .  T
C1969      C1970   1.412       .  A
C1969      C1974   1.400       .  A
C1969      C1983   1.444       .  S
C1970      C1975   1.485       .  S
C1971      C1972   1.400       .  A
C1971      H1990   1.085       .  S
C1972      C1973   1.409       .  A
C1972      C1984   1.443       .  S
C1974      H1989   1.084       .  S
C1975      C1976   1.402       .  A
C1976      C1977   1.401       .  A
C1976      H1991   1.085       .  S
C1977      C1981   1.445       .  S
C1978      C1979   1.405       .  A
C1979      C1980   1.402       .  A
C1979      H1992   1.085       .  S
C1980      C1982   1.444       .  S
C1981      N1985   1.157       .  T
C1982      N1986   1.157       .  T
C1983      N1988   1.157       .  T
C1984      N1987   1.157       .  T
C1993      C1994   1.412   1_655  A
C1993      C1998   1.403       .  A
C1993      C2007   1.444       .  S
C1994      C1999   1.486       .  S
C1995      C1996   1.401       .  A
C1995      H2014   1.085       .  S
C1996      C2008   1.445       .  S
C1997      C1998   1.404   1_455  A
C1998      H2013   1.085       .  S
C1999      C2000   1.402   1_455  A
C2000      C2001   1.401       .  A
C2000      H2015   1.085       .  S
C2001      C2002   1.413   1_655  A
C2001      C2005   1.442       .  S
C2003      C2004   1.401       .  A
C2003      H2016   1.084       .  S
C2004      C2006   1.444       .  S
C2005      N2009   1.157       .  T
C2006      N2010   1.157       .  T
C2007      N2012   1.157       .  T
C2008      N2011   1.157       .  T
C2017      C2018   1.412       .  A
C2017      C2022   1.401       .  A
C2017      C2031   1.444       .  S
C2018      C2023   1.483       .  S
C2019      C2020   1.399       .  A
C2019      H2038   1.085       .  S
C2020      C2021   1.410       .  A
C2020      C2032   1.445       .  S
C2022      H2037   1.085       .  S
C2023      C2024   1.400       .  A
C2024      C2025   1.399       .  A
C2024      H2039   1.085       .  S
C2025      C2029   1.444       .  S
C2026      C2027   1.410   1_455  A
C2027      C2028   1.401       .  A
C2027      H2040   1.084       .  S
C2028      C2030   1.444       .  S
C2029      N2033   1.157       .  T
C2030      N2034   1.157       .  T
C2031      N2036   1.157       .  T
C2032      N2035   1.157       .  T
C2041      C2046   1.400       .  A
C2041      C2055   1.444       .  S
C2042      C2047   1.488       .  S
C2042      C2043   1.402   1_455  A
C2043      C2044   1.400       .  A
C2043      H2062   1.085       .  S
C2044      C2045   1.420       .  A
C2044      C2056   1.444       .  S
C2046      H2061   1.084       .  S
C2047      C2052   1.414   1_455  A
C2048      C2049   1.399       .  A
C2048      H2063   1.085       .  S
C2049      C2053   1.445       .  S
C2050      C2051   1.402   1_455  A
C2051      C2052   1.400       .  A
C2051      H2064   1.085       .  S
C2052      C2054   1.444       .  S
C2053      N2057   1.157       .  T
C2054      N2058   1.157       .  T
C2055      N2060   1.157       .  T
C2056      N2059   1.157       .  T
C2065      C2066   1.408       .  A
C2065      C2070   1.401       .  A
C2065      C2079   1.445       .  S
C2066      C2071   1.478       .  S
C2067      C2068   1.399       .  A
C2067      H2086   1.085       .  S
C2068      C2080   1.444       .  S
C2069      C2070   1.407       .  A
C2070      H2085   1.084       .  S
C2071      C2072   1.402   1_556  A
C2072      C2073   1.400       .  A
C2072      H2087   1.085       .  S
C2073      C2074   1.411   1_554  A
C2073      C2077   1.443       .  S
C2075      C2076   1.397       .  A
C2075      H2088   1.084       .  S
C2076      C2078   1.443       .  S
C2077      N2081   1.157       .  T
C2078      N2082   1.157       .  T
C2079      N2084   1.157       .  T
C2080      N2083   1.157       .  T
C2089      C2090   1.409   1_554  A
C2089      C2094   1.399       .  A
C2089      C2103   1.443       .  S
C2090      C2095   1.483       .  S
C2091      C2092   1.401       .  A
C2091      H2110   1.084       .  S
C2092      C2104   1.443       .  S
C2093      C2094   1.402   1_656  A
C2094      H2109   1.084       .  S
C2095      C2096   1.400   1_456  A
C2096      C2097   1.400       .  A
C2096      H2111   1.085       .  S
C2097      C2098   1.418   1_654  A
C2097      C2101   1.444       .  S
C2099      C2100   1.403       .  A
C2099      H2112   1.084       .  S
C2100      C2102   1.444       .  S
C2101      N2105   1.157       .  T
C2102      N2106   1.157       .  T
C2103      N2108   1.157       .  T
C2104      N2107   1.157       .  T
