geometry optimzed in LAMMPS
_audit_creation_date              2020-12-01 
_audit_creation_method            'lammps2cif' 
_symmetry_space_group_name_H-M    'P1' 
_symmetry_Int_Tables_number       1 
_symmetry_cell_setting            triclinic 
loop_ 
_symmetry_equiv_pos_as_xyz 
  x,y,z 
_cell_length_a                    124.26643123 
_cell_length_b                    124.09957177401178 
_cell_length_c                    124.14346581188063 
_cell_angle_alpha                 90.02170870997884 
_cell_angle_beta                  90.0643532342783 
_cell_angle_gamma                 90.06074436153344 
loop_ 
_atom_site_label 
_atom_site_type_symbol 
_atom_site_fract_x 
_atom_site_fract_y 
_atom_site_fract_z 
_atom_site_charge 
N1          N  0.77630122  0.20063132  0.44174579    -0.03200
C2          C  0.77670899  0.19186506  0.43516017    -0.00600
C3          C  0.78140081  0.18330988  0.44058388    -0.23400
C4          C  0.78401626  0.18692514  0.45071349    -0.23700
C5          C  0.78077268  0.19754605  0.45124399    -0.00700
H6          H  0.78305074  0.17535156  0.43743142     0.13100
H7          H  0.78781442  0.18228231  0.45703917     0.13200
N8          N  0.73379478  0.28931347  0.44128436    -0.03200
C9          C  0.73430192  0.29816565  0.43485237    -0.00600
C10         C  0.73001043  0.30698621  0.44012776    -0.23400
C11         C  0.72671870  0.30347055  0.45009183    -0.23700
C12         C  0.72920218  0.29262833  0.45066119    -0.00700
H13         H  0.72924654  0.31509470  0.43701409     0.13100
H14         H  0.72314844  0.30836701  0.45635326     0.13200
N15         N  0.70931318  0.25947366  0.54967266    -0.03200
C16         C  0.70276141  0.26258763  0.55787045    -0.00600
C17         C  0.69337262  0.26698763  0.55383785    -0.23400
C18         C  0.69409574  0.26652468  0.54282170    -0.23700
C19         C  0.70395086  0.26194905  0.54044326    -0.00700
H20         H  0.68664118  0.27006299  0.55842723     0.13100
H21         H  0.68819658  0.26951048  0.53714206     0.13200
N22         N  0.80359149  0.23025450  0.54948910    -0.03200
C23         C  0.81178203  0.23005302  0.55674542    -0.00600
C24         C  0.82134274  0.22752286  0.55165041    -0.23400
C25         C  0.81902588  0.22636854  0.54090658    -0.23700
C26         C  0.80811404  0.22822127  0.53973759    -0.00700
H27         H  0.82922057  0.22686351  0.55531700     0.13100
H28         H  0.82475232  0.22465772  0.53457061     0.13200
N29         N  0.71558529  0.22186235  0.94109960    -0.03200
C30         C  0.70924200  0.21838107  0.93287053    -0.00600
C31         C  0.70062858  0.21255711  0.93680677    -0.23400
C32         C  0.70160971  0.21248973  0.94782565    -0.23700
C33         C  0.71084424  0.21821372  0.95027679    -0.00700
H34         H  0.69414752  0.20901947  0.93216538     0.13100
H35         H  0.69618010  0.20865557  0.95345897     0.13200
N36         N  0.80340473  0.26827107  0.94076987    -0.03200
C37         C  0.81193024  0.26882187  0.93393393    -0.00600
C38         C  0.82009543  0.27489412  0.93848780    -0.23400
C39         C  0.81642767  0.27834017  0.94833955    -0.23700
C40         C  0.80618213  0.27417446  0.94956813    -0.00700
H41         H  0.82767761  0.27707900  0.93479987     0.13100
H42         H  0.82070669  0.28348240  0.95394003     0.13200
N43         N  0.73968952  0.20031582  0.05200942    -0.03200
C44         C  0.73980124  0.19202639  0.05915872    -0.00600
C45         C  0.73585632  0.18277398  0.05432500    -0.23400
C46         C  0.73317284  0.18545758  0.04393072    -0.23700
C47         C  0.73564776  0.19624011  0.04268197    -0.00700
H48         H  0.73478843  0.17495767  0.05804002     0.13100
H49         H  0.72987327  0.18009101  0.03789570     0.13200
N50         N  0.77820833  0.29160025  0.05051440    -0.03200
C51         C  0.78063369  0.29939605  0.05784281    -0.00600
C52         C  0.78429762  0.30854192  0.05262299    -0.23400
C53         C  0.78406274  0.30636771  0.04177886    -0.23700
C54         C  0.78036671  0.29592629  0.04068493    -0.00700
H55         H  0.78669857  0.31607905  0.05630255     0.13100
H56         H  0.78654592  0.31174568  0.03538344     0.13200
N57         N  0.80470284  0.94081601  0.26772351    -0.03200
C58         C  0.81222233  0.93335511  0.27048504    -0.00600
C59         C  0.82154456  0.93836184  0.27392559    -0.23400
C60         C  0.81977951  0.94925985  0.27320606    -0.23700
C61         C  0.80937836  0.95059366  0.26945654    -0.00700
H62         H  0.82887267  0.93448877  0.27660525     0.13100
H63         H  0.82538979  0.95554459  0.27546606     0.13200
N64         N  0.71480491  0.93794244  0.22674155    -0.03200
C65         C  0.70640562  0.93089654  0.22721385    -0.00600
C66         C  0.69744349  0.93545904  0.22239015    -0.23400
C67         C  0.70039523  0.94553441  0.21888459    -0.23700
C68         C  0.71106318  0.94693332  0.22170631    -0.00700
H69         H  0.68959344  0.93181009  0.22138192     0.13100
H70         H  0.69522485  0.95131457  0.21490973     0.13200
N71         N  0.77013886  0.04781945  0.29158303    -0.03200
C72         C  0.76920851  0.05423765  0.30040810    -0.00600
C73         C  0.77345449  0.04913218  0.30934740    -0.23400
C74         C  0.77718896  0.03929541  0.30592854    -0.23700
C75         C  0.77501631  0.03864334  0.29502270    -0.00700
H76         H  0.77402323  0.05233654  0.31743788     0.13100
H77         H  0.78097192  0.03321080  0.31089279     0.13200
N78         N  0.73706276  0.04803651  0.19817045    -0.03200
C79         C  0.73361691  0.05581452  0.19122998    -0.00600
C80         C  0.72897199  0.05109361  0.18225456    -0.23400
C81         C  0.72959235  0.04014531  0.18365612    -0.23700
C82         C  0.73451536  0.03843806  0.19349197    -0.00700
H83         H  0.72561973  0.05518471  0.17532476     0.13100
H84         H  0.72657222  0.03406750  0.17817298     0.13200
O85         O  0.75550233  0.30022134  0.17345549    -0.74100
O86         O  0.75796961  0.33097542  0.17576530    -0.74100
O87         O  0.75942519  0.31632503  0.15927099    -0.74200
O88         O  0.75406279  0.31476563  0.18965615    -0.74200
O89         O  0.77165117  0.31315411  0.19274324    -0.74200
O90         O  0.77702154  0.31475560  0.16232281    -0.74100
O91         O  0.77558883  0.32940680  0.17871683    -0.74100
O92         O  0.77309449  0.29858040  0.17648647    -0.74200
Ni93       Ni  0.75613398  0.31565144  0.17438891     1.25400
Ni94       Ni  0.77497220  0.31393379  0.17764461     1.25400
C95         C  0.76385774  0.29429839  0.17472063     0.88100
C96         C  0.76710620  0.33524850  0.17800288     0.88000
C97         C  0.76908927  0.31553168  0.15574785     0.88000
C98         C  0.76195490  0.31372698  0.19622726     0.88200
O99         O  0.75843428  0.29850399  0.31811403    -0.74100
O100        O  0.75590798  0.32942469  0.31731475    -0.74100
O101        O  0.75488680  0.31392613  0.33306373    -0.74200
O102        O  0.75960585  0.31392425  0.30256124    -0.74200
O103        O  0.74195261  0.31252688  0.29970454    -0.74200
O104        O  0.73726074  0.31212360  0.33031064    -0.74100
O105        O  0.73823222  0.32778306  0.31478879    -0.74100
O106        O  0.74081523  0.29709573  0.31505801    -0.74200
Ni107      Ni  0.75783338  0.31402537  0.31788934     1.25400
Ni108      Ni  0.73894022  0.31236498  0.31489874     1.25400
C109        C  0.74999218  0.29270505  0.31667358     0.88100
C110        C  0.74666335  0.33368607  0.31554675     0.88000
C111        C  0.74534939  0.31255550  0.33673827     0.88000
C112        C  0.75159170  0.31327326  0.29608903     0.88200
O113        O  0.74877814  0.17431165  0.19292947    -0.74100
O114        O  0.74613070  0.17537830  0.16216250    -0.74100
O115        O  0.74521931  0.15941934  0.17742090    -0.74200
O116        O  0.74969386  0.19007790  0.17780654    -0.74200
O117        O  0.76735657  0.18754614  0.17614501    -0.74200
O118        O  0.76289380  0.15688307  0.17595121    -0.74100
O119        O  0.76378501  0.17271639  0.16060542    -0.74100
O120        O  0.76646409  0.17186450  0.19134100    -0.74200
Ni121      Ni  0.74682459  0.17485914  0.17761192     1.25400
Ni122      Ni  0.76574121  0.17213669  0.17592772     1.25400
C123        C  0.75806123  0.17292744  0.19721988     0.88100
C124        C  0.75458584  0.17458421  0.15630839     0.88000
C125        C  0.75335024  0.15306584  0.17699354     0.88000
C126        C  0.75925934  0.19388764  0.17701031     0.88200
O127        O  0.75370866  0.18766407  0.31882624    -0.74100
O128        O  0.75530165  0.15673394  0.31850989    -0.74100
O129        O  0.75619425  0.17239959  0.33408709    -0.74200
O130        O  0.75276217  0.17220639  0.30342762    -0.74200
O131        O  0.77054904  0.17324905  0.30142807    -0.74200
O132        O  0.77402143  0.17308535  0.33215499    -0.74100
O133        O  0.77307768  0.15774208  0.31644601    -0.74100
O134        O  0.77151468  0.18858224  0.31693356    -0.74200
Ni135      Ni  0.75386639  0.17218918  0.31881578     1.25400
Ni136      Ni  0.77292450  0.17318558  0.31670360     1.25400
C137        C  0.76235474  0.19323102  0.31787411     0.88100
C138        C  0.76442793  0.15213636  0.31702235     0.88000
C139        C  0.76564584  0.17302131  0.33817655     0.88000
C140        C  0.76107606  0.17272444  0.29735466     0.88200
N141        N  0.78245948  0.43886844  0.20437440    -0.03200
C142        C  0.78497638  0.43212450  0.19607517    -0.00600
C143        C  0.79266610  0.43698962  0.18958690    -0.23400
C144        C  0.79485265  0.44693289  0.19391593    -0.23700
C145        C  0.78843282  0.44794498  0.20290503    -0.00700
H146        H  0.79636924  0.43366341  0.18243718     0.13100
H147        H  0.80025289  0.45293476  0.19063012     0.13200
N148        N  0.73689118  0.43795430  0.29224069    -0.03200
C149        C  0.73754047  0.43123571  0.30087667    -0.00600
C150        C  0.73199619  0.43551070  0.30951536    -0.23400
C151        C  0.72769581  0.44509976  0.30609252    -0.23700
C152        C  0.73082073  0.44646538  0.29548654    -0.00700
H153        H  0.73087730  0.43186033  0.31735164     0.13100
H154        H  0.72279772  0.45051730  0.31084101     0.13200
N155        N  0.79937216  0.55056939  0.23156546    -0.03200
C156        C  0.80763921  0.55772960  0.23061318    -0.00600
C157        C  0.81601760  0.55300645  0.22495989    -0.23400
C158        C  0.81286067  0.54270753  0.22241362    -0.23700
C159        C  0.80267197  0.54139379  0.22658663    -0.00700
H160        H  0.82363846  0.55666741  0.22285691     0.13100
H161        H  0.81761745  0.53670320  0.21826400     0.13200
N162        N  0.70611439  0.54633385  0.26313814    -0.03200
C163        C  0.69728682  0.55279660  0.26275421    -0.00600
C164        C  0.68833844  0.54728347  0.26638773    -0.23400
C165        C  0.69176752  0.53714438  0.26922814    -0.23700
C166        C  0.70269993  0.53670586  0.26713692    -0.00700
H167        H  0.68024226  0.55039273  0.26716086     0.13100
H168        H  0.68678956  0.53073854  0.27242200     0.13200
O169        O  0.70556099  0.81411506  0.24038341    -0.74100
O170        O  0.67530512  0.81203360  0.23491095    -0.74100
O171        O  0.68993030  0.82844625  0.23545357    -0.74200
O172        O  0.69108276  0.79782338  0.23990777    -0.74200
O173        O  0.68764268  0.80021965  0.25734927    -0.74200
O174        O  0.68692856  0.83085868  0.25298749    -0.74100
O175        O  0.67190749  0.81450674  0.25234670    -0.74100
O176        O  0.70237889  0.81636814  0.25789553    -0.74200
Ni177      Ni  0.69055417  0.81304158  0.23704805     1.25400
Ni178      Ni  0.68705375  0.81560295  0.25575838     1.25400
C179        C  0.70899871  0.81549966  0.25002069     0.88100
C180        C  0.66859270  0.81264000  0.24272001     0.88000
C181        C  0.68864989  0.83471842  0.24356279     0.88000
C182        C  0.68961918  0.79395718  0.24937766     0.88200
O183        O  0.82986857  0.68970821  0.25163131    -0.74100
O184        O  0.82979793  0.65876959  0.25027780    -0.74100
O185        O  0.84539547  0.67460513  0.25012752    -0.74200
O186        O  0.81450451  0.67406810  0.25179069    -0.74200
O187        O  0.81356251  0.67471950  0.23388106    -0.74200
O188        O  0.84437841  0.67550205  0.23223750    -0.74100
O189        O  0.82910820  0.65959710  0.23235666    -0.74100
O190        O  0.82872463  0.69047279  0.23373748    -0.74200
Ni191      Ni  0.82995877  0.67423088  0.25159284     1.25400
Ni192      Ni  0.82892926  0.67507335  0.23242554     1.25400
C193        C  0.82933797  0.69520146  0.24289910     0.88100
C194        C  0.82907054  0.65408686  0.24109067     0.88000
C195        C  0.84997806  0.67561637  0.24092090     0.88000
C196        C  0.80893294  0.67421667  0.24309275     0.88200
O197        O  0.70480487  0.67302938  0.26393850    -0.74100
O198        O  0.67407173  0.67456756  0.26580213    -0.74100
O199        O  0.68893829  0.65832148  0.26605336    -0.74200
O200        O  0.69013424  0.68917988  0.26364082    -0.74200
O201        O  0.68901043  0.68772967  0.24579157    -0.74200
O202        O  0.68774871  0.65687579  0.24821082    -0.74100
O203        O  0.67284861  0.67311924  0.24796037    -0.74100
O204        O  0.70370524  0.67158188  0.24608495    -0.74200
Ni205      Ni  0.68949254  0.67380434  0.26548515     1.25400
Ni206      Ni  0.68824923  0.67226733  0.24637903     1.25400
C207        C  0.70934997  0.67205365  0.25473042     0.88100
C208        C  0.66836907  0.67431927  0.25719356     0.88000
C209        C  0.68850977  0.65248043  0.25752972     0.88000
C210        C  0.68989995  0.69355597  0.25428749     0.88200
O211        O  0.81348969  0.81451019  0.26414947    -0.74100
O212        O  0.84434690  0.81505964  0.26646877    -0.74100
O213        O  0.82834576  0.83029117  0.26626212    -0.74200
O214        O  0.82935596  0.79943597  0.26433523    -0.74200
O215        O  0.83065423  0.80059628  0.24647668    -0.74200
O216        O  0.82956374  0.83144146  0.24840114    -0.74100
O217        O  0.84552234  0.81633730  0.24861046    -0.74100
O218        O  0.81481929  0.81564510  0.24629129    -0.74200
Ni219      Ni  0.82886042  0.81480342  0.26594567     1.25400
Ni220      Ni  0.83021125  0.81605786  0.24682437     1.25400
C221        C  0.80906147  0.81508138  0.25482942     0.88100
C222        C  0.85003350  0.81549095  0.25786270     0.88000
C223        C  0.82841894  0.83595835  0.25761887     0.88000
C224        C  0.83020137  0.79491387  0.25508708     0.88200
N225        N  0.45453827  0.75884521  0.20106429    -0.03200
C226        C  0.44706902  0.76169598  0.19358557    -0.00600
C227        C  0.45200100  0.76690908  0.18506591    -0.23400
C228        C  0.46282189  0.76731202  0.18737485    -0.23700
C229        C  0.46417006  0.76243846  0.19729462    -0.00700
H230        H  0.44812195  0.77017397  0.17797387     0.13100
H231        H  0.46896407  0.77119187  0.18256603     0.13200
N232        N  0.45489825  0.72441771  0.29303436    -0.03200
C233        C  0.44872810  0.72546231  0.30202791    -0.00600
C234        C  0.45391887  0.72091361  0.31076106    -0.23400
C235        C  0.46350557  0.71685829  0.30703384    -0.23700
C236        C  0.46398782  0.71912572  0.29613201    -0.00700
H237        H  0.45091783  0.72032940  0.31892074     0.13100
H238        H  0.46954247  0.71277258  0.31180905     0.13200
N239        N  0.56198875  0.68920888  0.26316104    -0.03200
C240        C  0.56874590  0.68064889  0.26200591    -0.00600
C241        C  0.56378079  0.67134118  0.26558416    -0.23400
C242        C  0.55375538  0.67426203  0.26920725    -0.23700
C243        C  0.55280533  0.68525426  0.26763551    -0.00700
H244        H  0.56724295  0.66335121  0.26595271     0.13100
H245        H  0.54781848  0.66894522  0.27273533     0.13200
N246        N  0.56496144  0.78193247  0.22912801    -0.03200
C247        C  0.57279142  0.78908240  0.22632877    -0.00600
C248        C  0.56847440  0.79713014  0.21994115    -0.23400
C249        C  0.55771106  0.79489768  0.21876159    -0.23700
C250        C  0.55574850  0.78549079  0.22437783    -0.00700
H251        H  0.57270715  0.80394682  0.21652873     0.13100
H252        H  0.55200183  0.79945977  0.21401536     0.13200
N253        N  0.95464255  0.70178534  0.23466653    -0.03200
C254        C  0.94741387  0.69360550  0.23552017    -0.00600
C255        C  0.95182410  0.68413513  0.23169148    -0.23400
C256        C  0.96209122  0.68654112  0.22832633    -0.23700
C257        C  0.96366847  0.69738893  0.23031254    -0.00700
H258        H  0.94791633  0.67635080  0.23122991     0.13100
H259        H  0.96785115  0.68094322  0.22495733     0.13200
N260        N  0.95569312  0.79437284  0.26916663    -0.03200
C261        C  0.94865952  0.80270540  0.26815264    -0.00600
C262        C  0.95364630  0.81225607  0.27106194    -0.23400
C263        C  0.96395853  0.80971031  0.27411811    -0.23700
C264        C  0.96504307  0.79869459  0.27289922    -0.00700
H265        H  0.95001914  0.82016921  0.27147867     0.13100
H266        H  0.96995712  0.81527722  0.27713656     0.13200
N267        N  0.06343183  0.72325249  0.20289577    -0.03200
C268        C  0.07070148  0.72035778  0.19522012    -0.00600
C269        C  0.06545936  0.71633564  0.18624929    -0.23400
C270        C  0.05464238  0.71686076  0.18836692    -0.23700
C271        C  0.05357087  0.72109319  0.19861182    -0.00700
H272        H  0.06910565  0.71356554  0.17883640     0.13100
H273        H  0.04822716  0.71429577  0.18304486     0.13200
N274        N  0.06427288  0.76370261  0.29286176    -0.03200
C275        C  0.07227746  0.76701932  0.29958574    -0.00600
C276        C  0.06805115  0.77282583  0.30808595    -0.23400
C277        C  0.05711438  0.77314332  0.30660302    -0.23700
C278        C  0.05498224  0.76762515  0.29716784    -0.00700
H279        H  0.07248478  0.77653324  0.31462032     0.13100
H280        H  0.05137897  0.77736733  0.31161461     0.13200
N281        N  0.27669640  0.78793329  0.94229374    -0.03200
C282        C  0.27595106  0.79629056  0.93521898    -0.00600
C283        C  0.27960200  0.80567115  0.94004405    -0.23400
C284        C  0.28268193  0.80304945  0.95032484    -0.23700
C285        C  0.28078194  0.79214912  0.95156988    -0.00700
H286        H  0.28022456  0.81356704  0.93639827     0.13100
H287        H  0.28585492  0.80855438  0.95630335     0.13200
N288        N  0.23822985  0.69678096  0.94248743    -0.03200
C289        C  0.23537226  0.68883146  0.93549403    -0.00600
C290        C  0.23065519  0.68036617  0.94100102    -0.23400
C291        C  0.23065665  0.68312572  0.95170916    -0.23700
C292        C  0.23527103  0.69323125  0.95240940    -0.00700
H293        H  0.22763762  0.67291770  0.93760430     0.13100
H294        H  0.22740481  0.67838539  0.95826089     0.13200
N295        N  0.30394860  0.76265197  0.05238647    -0.03200
C296        C  0.31246908  0.76235192  0.05929621    -0.00600
C297        C  0.32098255  0.76821437  0.05516173    -0.23400
C298        C  0.31763200  0.77233225  0.04546989    -0.23700
C299        C  0.30720907  0.76878226  0.04390052    -0.00700
H300        H  0.32872351  0.76957778  0.05892992     0.13100
H301        H  0.32232587  0.77732191  0.04008177     0.13200
N302        N  0.21283689  0.72316694  0.05188442    -0.03200
C303        C  0.20440046  0.72315180  0.05886026    -0.00600
C304        C  0.19573758  0.71775835  0.05436993    -0.23400
C305        C  0.19895319  0.71423481  0.04439304    -0.23700
C306        C  0.20943251  0.71768734  0.04303121    -0.00700
H307        H  0.18806005  0.71612637  0.05814342     0.13100
H308        H  0.19419850  0.70956072  0.03876726     0.13200
O309        O  0.18753373  0.74351797  0.19238938    -0.74100
O310        O  0.18690384  0.74264609  0.16155309    -0.74100
O311        O  0.17194053  0.74072511  0.17749241    -0.74200
O312        O  0.20247664  0.74533611  0.17658222    -0.74200
O313        O  0.20512406  0.72759600  0.17727913    -0.74200
O314        O  0.17466455  0.72297962  0.17760646    -0.74100
O315        O  0.18991950  0.72495495  0.16193075    -0.74100
O316        O  0.19001204  0.72574893  0.19290400    -0.74200
Ni317      Ni  0.18710666  0.74367968  0.17696857     1.25400
Ni318      Ni  0.19000137  0.72468501  0.17743183     1.25400
C319        C  0.18883926  0.73480270  0.19776082     0.88100
C320        C  0.18857814  0.73372616  0.15662897     0.88000
C321        C  0.16827123  0.73107203  0.17788071     0.88000
C322        C  0.20884740  0.73721320  0.17683841     0.88200
O323        O  0.31205579  0.75475186  0.17871630    -0.74100
O324        O  0.34239522  0.76037976  0.17812905    -0.74100
O325        O  0.32633047  0.75937253  0.16300231    -0.74200
O326        O  0.32790178  0.75570861  0.19369518    -0.74200
O327        O  0.33087219  0.73816321  0.19136793    -0.74200
O328        O  0.32975055  0.74191280  0.16068192    -0.74100
O329        O  0.34558894  0.74283828  0.17608363    -0.74100
O330        O  0.31521512  0.73726815  0.17612034    -0.74200
Ni331      Ni  0.32709398  0.75818333  0.17843566     1.25400
Ni332      Ni  0.33050226  0.73943625  0.17595889     1.25400
C333        C  0.30862259  0.74509304  0.17744885     0.88100
C334        C  0.34901971  0.75249301  0.17744598     0.88000
C335        C  0.32738600  0.75118159  0.15677979     0.88000
C336        C  0.32955442  0.74629238  0.19760918     0.88200
O337        O  0.18971157  0.74001788  0.30276322    -0.74100
O338        O  0.18854309  0.74224461  0.33356785    -0.74100
O339        O  0.17367498  0.74182476  0.31731858    -0.74200
O340        O  0.20455874  0.74049346  0.31888745    -0.74200
O341        O  0.20536613  0.75838327  0.31763509    -0.74200
O342        O  0.17457966  0.75970955  0.31608939    -0.74100
O343        O  0.18950884  0.76013067  0.33228070    -0.74100
O344        O  0.19069277  0.75790669  0.30147677    -0.74200
Ni345      Ni  0.18907398  0.74051060  0.31819464     1.25400
Ni346      Ni  0.19003040  0.75966299  0.31683675     1.25400
C347        C  0.19039930  0.74858146  0.29703538     0.88100
C348        C  0.18919466  0.75154663  0.33801815     0.88000
C349        C  0.16903537  0.75098648  0.31619829     0.88000
C350        C  0.21006303  0.74924515  0.31857253     0.88200
O351        O  0.33140788  0.74767770  0.30404405    -0.74100
O352        O  0.33061196  0.74357423  0.33469661    -0.74100
O353        O  0.34651955  0.74416858  0.31931765    -0.74200
O354        O  0.31560538  0.74698806  0.31921547    -0.74200
O355        O  0.31410849  0.72924828  0.31691005    -0.74200
O356        O  0.34478404  0.72648966  0.31676302    -0.74100
O357        O  0.32919986  0.72584477  0.33227225    -0.74100
O358        O  0.32953157  0.72998528  0.30157492    -0.74200
Ni359      Ni  0.33111383  0.74623062  0.31943614     1.25400
Ni360      Ni  0.32937310  0.72727095  0.31682681     1.25400
C361        C  0.33055618  0.73953015  0.29774939     0.88100
C362        C  0.32952856  0.73405168  0.33855955     0.88000
C363        C  0.35074935  0.73487535  0.31766213     0.88000
C364        C  0.30975795  0.73853641  0.31800415     0.88200
N365        N  0.23713228  0.78618054  0.55265267    -0.03200
C366        C  0.23665842  0.79462446  0.55959316    -0.00600
C367        C  0.23227405  0.80350682  0.55445546    -0.23400
C368        C  0.23012385  0.80045315  0.54402513    -0.23700
C369        C  0.23318450  0.78980537  0.54314664    -0.00700
H370        H  0.23084361  0.81139068  0.55789212     0.13100
H371        H  0.22695303  0.80552550  0.53768496     0.13200
N372        N  0.27211745  0.69343442  0.55047443    -0.03200
C373        C  0.27256028  0.68512803  0.55761317    -0.00600
C374        C  0.27596306  0.67585544  0.55243077    -0.23400
C375        C  0.27744240  0.67847807  0.54178354    -0.23700
C376        C  0.27498352  0.68927999  0.54076621    -0.00700
H377        H  0.27712239  0.66797319  0.55596882     0.13100
H378        H  0.27979292  0.67302700  0.53540066     0.13200
N379        N  0.30135100  0.72016660  0.44176003    -0.03200
C380        C  0.30957563  0.71871546  0.43465486    -0.00600
C381        C  0.31690881  0.71144416  0.43888788    -0.23400
C382        C  0.31310214  0.70834237  0.44880589    -0.23700
C383        C  0.30360005  0.71385710  0.45042389    -0.00700
H384        H  0.32419526  0.70854550  0.43510590     0.13100
H385        H  0.31697988  0.70284412  0.45434743     0.13200
N386        N  0.21565958  0.77043077  0.44090130    -0.03200
C387        C  0.20757471  0.77159219  0.43360642    -0.00600
C388        C  0.19978151  0.77845663  0.43763410    -0.23400
C389        C  0.20318156  0.78164941  0.44768162    -0.23700
C390        C  0.21288605  0.77655330  0.44953114    -0.00700
H391        H  0.19249303  0.78103276  0.43361416     0.13100
H392        H  0.19893318  0.78694982  0.45313751     0.13200
O393        O  0.24791942  0.79709824  0.67755850    -0.74100
O394        O  0.24503677  0.82788776  0.67735163    -0.74100
O395        O  0.24527013  0.81200628  0.66201021    -0.74200
O396        O  0.24765449  0.81279084  0.69274464    -0.74200
O397        O  0.26546407  0.81438518  0.69139974    -0.74200
O398        O  0.26305020  0.81387135  0.66060385    -0.74100
O399        O  0.26284027  0.82956211  0.67609206    -0.74100
O400        O  0.26570539  0.79880527  0.67607172    -0.74200
Ni401      Ni  0.24583511  0.81241555  0.67743784     1.25400
Ni402      Ni  0.26489064  0.81423800  0.67596170     1.25400
C403        C  0.25729592  0.79286227  0.67682089     0.88100
C404        C  0.25349970  0.83381345  0.67711778     0.88000
C405        C  0.25379921  0.81245851  0.65623455     0.88000
C406        C  0.25693711  0.81370350  0.69715903     0.88200
O407        O  0.25467270  0.67367274  0.80198525    -0.74100
O408        O  0.25201950  0.67311825  0.83278918    -0.74100
O409        O  0.25171334  0.65795394  0.81682506    -0.74200
O410        O  0.25500164  0.68874093  0.81787353    -0.74200
O411        O  0.23724049  0.69065059  0.81641879    -0.74200
O412        O  0.23397014  0.65986553  0.81515365    -0.74100
O413        O  0.23424582  0.67485983  0.83118030    -0.74100
O414        O  0.23691257  0.67564255  0.80050566    -0.74200
Ni415      Ni  0.25398116  0.67328705  0.81743676     1.25400
Ni416      Ni  0.23496739  0.67531733  0.81578159     1.25400
C417        C  0.24621000  0.67472257  0.79616010     0.88100
C418        C  0.24268195  0.67405948  0.83706984     0.88000
C419        C  0.24232830  0.65382171  0.81554873     0.88000
C420        C  0.24666193  0.69479849  0.81734592     0.88200
O421        O  0.27457831  0.79800239  0.81776248    -0.74100
O422        O  0.27841561  0.82873454  0.81675160    -0.74100
O423        O  0.27628717  0.81361005  0.83278989    -0.74200
O424        O  0.27669705  0.81294813  0.80189909    -0.74200
O425        O  0.25890329  0.81512294  0.80169236    -0.74200
O426        O  0.25852121  0.81600859  0.83252805    -0.74100
O427        O  0.26064531  0.83099722  0.81643165    -0.74100
O428        O  0.25679553  0.80020580  0.81760576    -0.74200
Ni429      Ni  0.27712500  0.81327605  0.81734360     1.25400
Ni430      Ni  0.25809105  0.81568020  0.81708127     1.25400
C431        C  0.26505525  0.79400743  0.81788440     0.88100
C432        C  0.27018856  0.83493548  0.81597526     0.88000
C433        C  0.26729142  0.81451710  0.83775945     0.88000
C434        C  0.26785164  0.81401055  0.79669260     0.88200
O435        O  0.26714071  0.68796325  0.67605656    -0.74100
O436        O  0.26869919  0.65707035  0.67720028    -0.74100
O437        O  0.26816665  0.67219785  0.66106343    -0.74200
O438        O  0.26766942  0.67299542  0.69197554    -0.74200
O439        O  0.24976944  0.67202784  0.69159681    -0.74200
O440        O  0.25027157  0.67120165  0.66072773    -0.74100
O441        O  0.25080166  0.65612377  0.67679367    -0.74100
O442        O  0.24924297  0.68697061  0.67570104    -0.74200
Ni443      Ni  0.26855821  0.67256208  0.67655027     1.25400
Ni444      Ni  0.24939524  0.67152521  0.67617043     1.25400
C445        C  0.25791709  0.69257251  0.67571862     0.88100
C446        C  0.25999762  0.65150763  0.67756223     0.88000
C447        C  0.25929245  0.67191850  0.65577550     0.88000
C448        C  0.25861275  0.67262505  0.69689232     0.88200
O449        O  0.81444761  0.25587985  0.67398291    -0.74100
O450        O  0.84530473  0.25346312  0.67411149    -0.74100
O451        O  0.82963933  0.25362042  0.65862773    -0.74200
O452        O  0.82997126  0.25583285  0.68938703    -0.74200
O453        O  0.82873584  0.23798020  0.69078098    -0.74200
O454        O  0.82799201  0.23578940  0.65986304    -0.74100
O455        O  0.84381747  0.23561109  0.67521341    -0.74100
O456        O  0.81311934  0.23803979  0.67553424    -0.74200
Ni457      Ni  0.82991872  0.25532623  0.67396393     1.25400
Ni458      Ni  0.82839837  0.23621993  0.67537111     1.25400
C459        C  0.80869673  0.24732544  0.67477400     0.88100
C460        C  0.84965851  0.24412529  0.67493063     0.88000
C461        C  0.82836930  0.24440031  0.65415112     0.88000
C462        C  0.82938975  0.24731308  0.69518913     0.88200
O463        O  0.70058349  0.25145279  0.81802382    -0.74100
O464        O  0.67010593  0.24562450  0.81801107    -0.74100
O465        O  0.68591180  0.24672886  0.83346162    -0.74200
O466        O  0.68489342  0.25043108  0.80281225    -0.74200
O467        O  0.68810832  0.23291663  0.80057149    -0.74200
O468        O  0.68931654  0.22925014  0.83126994    -0.74100
O469        O  0.67349861  0.22812144  0.81598551    -0.74100
O470        O  0.70381414  0.23395524  0.81571645    -0.74200
Ni471      Ni  0.68523297  0.24917287  0.81818809     1.25400
Ni472      Ni  0.68877838  0.23044193  0.81583144     1.25400
C473        C  0.70723854  0.24364230  0.81680667     0.88100
C474        C  0.66677179  0.23591642  0.81668665     0.88000
C475        C  0.68810896  0.23745261  0.83744340     0.88000
C476        C  0.68632104  0.24229501  0.79662230     0.88200
O477        O  0.68891291  0.25733617  0.69275542    -0.74100
O478        O  0.69048457  0.26139642  0.66220312    -0.74100
O479        O  0.67447906  0.26160236  0.67712910    -0.74200
O480        O  0.70488031  0.25719807  0.67801881    -0.74200
O481        O  0.70250441  0.23955817  0.67564624    -0.74200
O482        O  0.67185328  0.24404185  0.67447923    -0.74100
O483        O  0.68824055  0.24375379  0.65967940    -0.74100
O484        O  0.68624352  0.23975378  0.69025108    -0.74200
Ni485      Ni  0.68976774  0.25999747  0.67757884     1.25400
Ni486      Ni  0.68710564  0.24114456  0.67489322     1.25400
C487        C  0.68726920  0.24787609  0.69655241     0.88100
C488        C  0.68984073  0.25323208  0.65590174     0.88000
C489        C  0.66810756  0.25355818  0.67602051     0.88000
C490        C  0.70874364  0.24768376  0.67707413     0.88200
O491        O  0.81350732  0.24183597  0.81739530    -0.74100
O492        O  0.84427374  0.24508436  0.81611098    -0.74100
O493        O  0.82925331  0.24467868  0.83216912    -0.74200
O494        O  0.82840261  0.24210757  0.80146254    -0.74200
O495        O  0.82659783  0.25989995  0.79993189    -0.74200
O496        O  0.82718823  0.26245465  0.83083504    -0.74100
O497        O  0.84233959  0.26286752  0.81474338    -0.74100
O498        O  0.81157549  0.25961329  0.81590047    -0.74200
Ni499      Ni  0.82894997  0.24281350  0.81685454     1.25400
Ni500      Ni  0.82688250  0.26184945  0.81532240     1.25400
C501        C  0.80744819  0.25018834  0.81686595     0.88100
C502        C  0.84839261  0.25449843  0.81491626     0.88000
C503        C  0.82801650  0.25391477  0.83660816     0.88000
C504        C  0.82737774  0.25053873  0.79560446     0.88200
N505        N  0.21094606  0.43847884  0.76576734    -0.03200
C506        C  0.20285285  0.43118185  0.76460773    -0.00600
C507        C  0.19327595  0.43558282  0.76819461    -0.23400
C508        C  0.19554375  0.44583986  0.77170133    -0.23700
C509        C  0.20643208  0.44747855  0.77008703    -0.00700
H510        H  0.18550391  0.43165221  0.76851382     0.13100
H511        H  0.18982281  0.45152805  0.77498294     0.13200
N512        N  0.30447234  0.44073166  0.73353222    -0.03200
C513        C  0.31235651  0.43361258  0.73082802    -0.00600
C514        C  0.32167810  0.43915199  0.72821662    -0.23400
C515        C  0.31950190  0.44992841  0.72938586    -0.23700
C516        C  0.30889667  0.45071395  0.73260866    -0.00700
H517        H  0.32934588  0.43573134  0.72591560     0.13100
H518        H  0.32501726  0.45650478  0.72784732     0.13200
N519        N  0.27523032  0.54859904  0.70752720    -0.03200
C520        C  0.27618278  0.55537918  0.69897609    -0.00600
C521        C  0.28226845  0.55056341  0.69098398    -0.23400
C522        C  0.28520800  0.54057339  0.69475318    -0.23700
C523        C  0.28074255  0.53952539  0.70488852    -0.00700
H524        H  0.28459386  0.55406136  0.68334814     0.13100
H525        H  0.28999366  0.53466028  0.69050605     0.13200
N526        N  0.22956252  0.54860025  0.79545436    -0.03200
C527        C  0.22530108  0.55682606  0.80128234    -0.00600
C528        C  0.21925362  0.55283084  0.80971174    -0.23400
C529        C  0.21983958  0.54179525  0.80911290    -0.23700
C530        C  0.22615349  0.53935027  0.80026226    -0.00700
H531        H  0.21496400  0.55745608  0.81572147     0.13100
H532        H  0.21582737  0.53615432  0.81440870     0.13200
N533        N  0.23815805  0.93827062  0.69904220    -0.03200
C534        C  0.23485207  0.92993956  0.69274114    -0.00600
C535        C  0.22934868  0.93373451  0.68384520    -0.23400
C536        C  0.22929589  0.94477124  0.68461539    -0.23700
C537        C  0.23467466  0.94736442  0.69402035    -0.00700
H538        H  0.22584173  0.92897537  0.67742976     0.13100
H539        H  0.22547641  0.95030520  0.67906876     0.13200
N540        N  0.28292477  0.93838662  0.78765865    -0.03200
C541        C  0.28304899  0.93211526  0.79666036    -0.00600
C542        C  0.28915776  0.93696235  0.80462066    -0.23400
C543        C  0.29299047  0.94645253  0.80040955    -0.23700
C544        C  0.28901295  0.94720211  0.79003722    -0.00700
H545        H  0.29087763  0.93379032  0.81255732     0.13100
H546        H  0.29805487  0.95225134  0.80451157     0.13200
N547        N  0.21055500  0.04681207  0.72599160    -0.03200
C548        C  0.20201159  0.05360078  0.72672860    -0.00600
C549        C  0.19267339  0.04822004  0.72381784    -0.23400
C550        C  0.19558245  0.03788499  0.72109949    -0.23700
C551        C  0.20657647  0.03722634  0.72253807    -0.00700
H552        H  0.18464791  0.05156025  0.72330574     0.13100
H553        H  0.19026143  0.03154003  0.71835698     0.13200
N554        N  0.30369023  0.04853421  0.75946989    -0.03200
C555        C  0.31133943  0.05614541  0.76132529    -0.00600
C556        C  0.32088508  0.05137571  0.76442579    -0.23400
C557        C  0.31910960  0.04044383  0.76444766    -0.23700
C558        C  0.30849018  0.03888630  0.76146874    -0.00700
H559        H  0.32834002  0.05542432  0.76643794     0.13100
H560        H  0.32485541  0.03430376  0.76672689     0.13200
N561        N  0.95331501  0.26613782  0.79107180    -0.03200
C562        C  0.94561154  0.27044804  0.79755180    -0.00600
C563        C  0.95036859  0.27625917  0.80579271    -0.23400
C564        C  0.96131220  0.27549814  0.80438428    -0.23700
C565        C  0.96293364  0.26934765  0.79525160    -0.00700
H566        H  0.94630219  0.28054631  0.81219536     0.13100
H567        H  0.96742636  0.27930862  0.80930022     0.13200
N568        N  0.95316339  0.22778790  0.70064026    -0.03200
C569        C  0.94592714  0.22594746  0.69261318    -0.00600
C570        C  0.95110209  0.22241678  0.68343553    -0.23400
C571        C  0.96189738  0.22214400  0.68580212    -0.23700
C572        C  0.96298671  0.22540450  0.69640427    -0.00700
H573        H  0.94741439  0.22035077  0.67580650     0.13100
H574        H  0.96826390  0.21961287  0.68042747     0.13200
N575        N  0.06358752  0.28971416  0.76879849    -0.03200
C576        C  0.06994071  0.29867172  0.76838844    -0.00600
C577        C  0.06491724  0.30709053  0.77372281    -0.23400
C578        C  0.05528937  0.30324563  0.77752078    -0.23700
C579        C  0.05460673  0.29260233  0.77436424    -0.00700
H580        H  0.06804202  0.31513402  0.77499920     0.13100
H581        H  0.04939882  0.30774260  0.78209635     0.13200
N582        N  0.06389832  0.20227289  0.72268914    -0.03200
C583        C  0.07096291  0.19387199  0.72274388    -0.00600
C584        C  0.06638971  0.18508108  0.71759131    -0.23400
C585        C  0.05632650  0.18814034  0.71424072    -0.23700
C586        C  0.05494020  0.19869725  0.71746987    -0.00700
H587        H  0.07008869  0.17733389  0.71609805     0.13100
H588        H  0.05062812  0.18318808  0.70987076     0.13200
O589        O  0.20199010  0.17177415  0.74775151    -0.74100
O590        O  0.17129880  0.17308475  0.74469260    -0.74100
O591        O  0.18623352  0.15688172  0.74556113    -0.74200
O592        O  0.18714736  0.18768617  0.74689091    -0.74200
O593        O  0.18879092  0.18838523  0.72903181    -0.74200
O594        O  0.18821078  0.15749554  0.72773850    -0.74100
O595        O  0.17308604  0.17343362  0.72682696    -0.74100
O596        O  0.20376824  0.17252900  0.72990716    -0.74200
Ni597      Ni  0.18658331  0.17229119  0.74685104     1.25400
Ni598      Ni  0.18850378  0.17296670  0.72773831     1.25400
C599        C  0.20795160  0.17202026  0.73933322     0.88100
C600        C  0.16715373  0.17380376  0.73526021     0.88000
C601        C  0.18741339  0.15207581  0.73649081     0.88000
C602        C  0.18806847  0.19313296  0.73818026     0.88200
O603        O  0.20299788  0.31376161  0.74065214    -0.74100
O604        O  0.17206389  0.31253845  0.74096591    -0.74100
O605        O  0.18721510  0.32873913  0.74116485    -0.74200
O606        O  0.18795327  0.29787666  0.74039816    -0.74200
O607        O  0.18782865  0.29744624  0.75834262    -0.74200
O608        O  0.18789930  0.32835242  0.75909159    -0.74100
O609        O  0.17233707  0.31270197  0.75892227    -0.74100
O610        O  0.20321419  0.31293605  0.75857814    -0.74200
Ni611      Ni  0.18752877  0.31328837  0.74015725     1.25400
Ni612      Ni  0.18780041  0.31287418  0.75936680     1.25400
C613        C  0.20821787  0.31342678  0.74957027     0.88100
C614        C  0.16712916  0.31204526  0.75002463     0.88000
C615        C  0.18789352  0.33365910  0.75022956     0.88000
C616        C  0.18786899  0.29256065  0.74923989     0.88200
O617        O  0.32825595  0.29771513  0.72872435    -0.74100
O618        O  0.32649105  0.32832527  0.72521998    -0.74100
O619        O  0.34272207  0.31358926  0.72538139    -0.74200
O620        O  0.31208391  0.31233770  0.72854067    -0.74200
O621        O  0.31373381  0.31473993  0.74624879    -0.74200
O622        O  0.34456567  0.31537353  0.74314738    -0.74100
O623        O  0.32845467  0.33051426  0.74292365    -0.74100
O624        O  0.32967545  0.29984102  0.74649776    -0.74200
Ni625      Ni  0.32733856  0.31294013  0.72634541     1.25400
Ni626      Ni  0.32919194  0.31522630  0.74533635     1.25400
C627        C  0.32923309  0.29372260  0.73819206     0.88100
C628        C  0.32696608  0.33448295  0.73350067     0.88000
C629        C  0.34873210  0.31431760  0.73374769     0.88000
C630        C  0.30782053  0.31333607  0.73788528     0.88200
O631        O  0.32814333  0.18974368  0.75113655    -0.74100
O632        O  0.32706395  0.15897970  0.75410156    -0.74100
O633        O  0.34305429  0.17426572  0.75426074    -0.74200
O634        O  0.31233247  0.17462767  0.75102511    -0.74200
O635        O  0.31414169  0.17309272  0.73323582    -0.74200
O636        O  0.34482795  0.17217084  0.73652672    -0.74100
O637        O  0.32862669  0.15724921  0.73631032    -0.74100
O638        O  0.33018275  0.18789714  0.73340144    -0.74200
Ni639      Ni  0.32760982  0.17444468  0.75327237     1.25400
Ni640      Ni  0.32953654  0.17252058  0.73425140     1.25400
C641        C  0.32938600  0.19389165  0.74176321     0.88100
C642        C  0.32723812  0.15305046  0.74563429     0.88000
C643        C  0.34902850  0.17347068  0.74588061     0.88000
C644        C  0.30816017  0.17388177  0.74160425     0.88200
N645        N  0.56145935  0.22647934  0.79185717    -0.03200
C646        C  0.56888274  0.22322608  0.79924783    -0.00600
C647        C  0.56375998  0.21822496  0.80778596    -0.23400
C648        C  0.55291440  0.21843486  0.80561155    -0.23700
C649        C  0.55167228  0.22347580  0.79575627    -0.00700
H650        H  0.56749194  0.21487520  0.81491611     0.13100
H651        H  0.54662969  0.21498080  0.81055896     0.13200
N652        N  0.56250646  0.25904821  0.69976762    -0.03200
C653        C  0.56945604  0.26151334  0.69168212    -0.00600
C654        C  0.56383332  0.26587290  0.68309351    -0.23400
C655        C  0.55315893  0.26608173  0.68598370    -0.23700
C656        C  0.55253388  0.26192435  0.69629472    -0.00700
H657        H  0.56712493  0.26858561  0.67549538     0.13100
H658        H  0.54661201  0.26927412  0.68120044     0.13200
N659        N  0.45304296  0.19763981  0.76491123    -0.03200
C660        C  0.44647687  0.18907040  0.76300135    -0.00600
C661        C  0.45173329  0.17963119  0.76578271    -0.23400
C662        C  0.46174294  0.18250784  0.76958890    -0.23700
C663        C  0.46237892  0.19359975  0.76890824    -0.00700
H664        H  0.44851105  0.17153305  0.76546023     0.13100
H665        H  0.46788464  0.17709284  0.77256571     0.13200
N666        N  0.45350915  0.28801167  0.72674237    -0.03200
C667        C  0.44663887  0.29611407  0.72410195    -0.00600
C668        C  0.45219253  0.30429789  0.71897603    -0.23400
C669        C  0.46279670  0.30115349  0.71847125    -0.23700
C670        C  0.46339856  0.29108001  0.72318852    -0.00700
H671        H  0.44887975  0.31174934  0.71589779     0.13100
H672        H  0.46928316  0.30554803  0.71465877     0.13200
C673        C  0.45089461  0.27802442  0.73201840    -0.02900
C674        C  0.44241074  0.27159756  0.72824601    -0.05500
C675        C  0.44041009  0.26153152  0.73286618    -0.20600
C676        C  0.44684297  0.25768496  0.74134396     0.25200
C677        C  0.45524041  0.26426020  0.74524732    -0.18100
C678        C  0.45718717  0.27434778  0.74064874    -0.08100
C679        C  0.44514536  0.24644353  0.74512919    -0.18400
C680        C  0.44942462  0.24237254  0.75423501    -0.23200
C681        C  0.44909389  0.23072524  0.75703109     0.27200
C682        C  0.45136946  0.22760882  0.76767010    -0.19900
C683        C  0.45229261  0.21671440  0.77036606    -0.09600
C684        C  0.45097598  0.20875351  0.76245735    -0.10100
C685        C  0.44839661  0.21178350  0.75191164    -0.03100
C686        C  0.44753555  0.22265920  0.74917812    -0.18200
H687        H  0.43755933  0.27423225  0.72149737     0.10900
H688        H  0.43397071  0.25661039  0.72962188     0.11000
H689        H  0.46059958  0.26156022  0.75154892     0.10700
H690        H  0.46377508  0.27921550  0.74365293     0.11800
H691        H  0.44024942  0.24129919  0.74003239     0.11900
H692        H  0.45348321  0.24767967  0.75986965     0.13800
H693        H  0.45268311  0.23362780  0.77385699     0.10300
H694        H  0.45427244  0.21447097  0.77855874     0.12400
H695        H  0.44751188  0.20571126  0.74570636     0.09000
H696        H  0.44613429  0.22464109  0.74081977     0.11700
C697        C  0.54243884  0.26196047  0.70274725    -0.02900
C698        C  0.54232557  0.26574905  0.71340861    -0.05500
C699        C  0.53255503  0.26763201  0.71870846    -0.20600
C700        C  0.52266928  0.26581351  0.71348565     0.25200
C701        C  0.52281400  0.26154805  0.70296768    -0.18100
C702        C  0.53257999  0.25965179  0.69769457    -0.08100
C703        C  0.51257453  0.26974748  0.71870494    -0.18400
C704        C  0.50254884  0.26717283  0.71535020    -0.23200
C705        C  0.49259496  0.27281613  0.71903880     0.27200
C706        C  0.48252017  0.26807419  0.71694824    -0.19900
C707        C  0.47295956  0.27374692  0.71886151    -0.09600
C708        C  0.47327283  0.28432699  0.72286261    -0.10100
C709        C  0.48330134  0.28896561  0.72526284    -0.03100
C710        C  0.49285266  0.28329278  0.72341353    -0.18200
H711        H  0.54972873  0.26793897  0.71743886     0.10900
H712        H  0.53272702  0.27101033  0.72675256     0.11000
H713        H  0.51546929  0.26021982  0.69849384     0.10700
H714        H  0.53241945  0.25679273  0.68945168     0.11800
H715        H  0.51353359  0.27533739  0.72535487     0.11900
H716        H  0.50149768  0.26088354  0.70937770     0.13800
H717        H  0.48205242  0.26008929  0.71345262     0.10300
H718        H  0.46536408  0.27006372  0.71667384     0.12400
H719        H  0.48375783  0.29716073  0.72823621     0.09000
H720        H  0.50037878  0.28741275  0.72488252     0.11700
C721        C  0.54108637  0.22423988  0.79015905    -0.02900
C722        C  0.53986290  0.22120763  0.77931599    -0.05500
C723        C  0.52955848  0.21998334  0.77481710    -0.20600
C724        C  0.52028683  0.22161249  0.78109928     0.25200
C725        C  0.52156468  0.22542554  0.79170583    -0.18100
C726        C  0.53182694  0.22662681  0.79618642    -0.08100
C727        C  0.50950583  0.21860399  0.77663451    -0.18400
C728        C  0.50139613  0.21512276  0.78299041    -0.23200
C729        C  0.49113811  0.21026336  0.77903919     0.27200
C730        C  0.48558555  0.20330928  0.78601790    -0.19900
C731        C  0.47618974  0.19809572  0.78270833    -0.09600
C732        C  0.47193017  0.19989156  0.77241329    -0.10100
C733        C  0.47722016  0.20710560  0.76546889    -0.03100
C734        C  0.48678800  0.21223387  0.76873051    -0.18200
H735        H  0.54681085  0.21913876  0.77449447     0.10900
H736        H  0.52883416  0.21716375  0.76659209     0.11000
H737        H  0.51466248  0.22724758  0.79668574     0.10700
H738        H  0.53252828  0.22910099  0.80452397     0.11800
H739        H  0.50867476  0.21808779  0.76794911     0.11900
H740        H  0.50271099  0.21476197  0.79162254     0.13800
H741        H  0.48867910  0.20168284  0.79401608     0.10300
H742        H  0.47224539  0.19258165  0.78819983     0.12400
H743        H  0.47410261  0.20855825  0.75745012     0.09000
H744        H  0.49071258  0.21770414  0.76320390     0.11700
C745        C  0.56347744  0.23178770  0.78176555    -0.02900
C746        C  0.55821841  0.24146554  0.77926263    -0.05500
C747        C  0.55968818  0.24631357  0.76920271    -0.20600
C748        C  0.56626197  0.24144248  0.76141203     0.25200
C749        C  0.57175499  0.23188750  0.76405242    -0.18100
C750        C  0.57038947  0.22712730  0.77416701    -0.08100
C751        C  0.56709377  0.24639286  0.75056175    -0.18400
C752        C  0.56797228  0.24042173  0.74155323    -0.23200
C753        C  0.56737319  0.24514779  0.73061041     0.27200
C754        C  0.56192847  0.23942520  0.72252239    -0.19900
C755        C  0.56057979  0.24391026  0.71229996    -0.09600
C756        C  0.56494240  0.25403835  0.70989976    -0.10100
C757        C  0.57088284  0.25956079  0.71776963    -0.03100
C758        C  0.57199934  0.25520066  0.72811941    -0.18200
H759        H  0.55290646  0.24518314  0.78508378     0.10900
H760        H  0.55543905  0.25371094  0.76738324     0.11000
H761        H  0.57709057  0.22808478  0.75831358     0.10700
H762        H  0.57451330  0.21966862  0.77600073     0.11800
H763        H  0.56588659  0.25503683  0.74988553     0.11900
H764        H  0.56796595  0.23169064  0.74217042     0.13800
H765        H  0.55837293  0.23164013  0.72424038     0.10300
H766        H  0.55597417  0.23959043  0.70627551     0.12400
H767        H  0.57425814  0.26740747  0.71599911     0.09000
H768        H  0.57642818  0.25968106  0.73415726     0.11700
C769        C  0.36090049  0.17453938  0.74691145    -0.02900
C770        C  0.36766854  0.17174183  0.73829641    -0.05500
C771        C  0.37878269  0.17347376  0.73893977    -0.20600
C772        C  0.38342420  0.17820280  0.74812289     0.25200
C773        C  0.37667357  0.18084401  0.75684539    -0.18100
C774        C  0.36554805  0.17901542  0.75623796    -0.08100
C775        C  0.39534538  0.17975170  0.74841797    -0.18400
C776        C  0.40047064  0.18673659  0.75502893    -0.23200
C777        C  0.41245108  0.18783967  0.75583364     0.27200
C778        C  0.41677224  0.19643441  0.76184813    -0.19900
C779        C  0.42787412  0.19721334  0.76375876    -0.09600
C780        C  0.43495482  0.18941407  0.75965249    -0.10100
C781        C  0.43069786  0.18102507  0.75333916    -0.03100
C782        C  0.41961951  0.18021334  0.75145852    -0.18200
H783        H  0.36436529  0.16825883  0.73100626     0.10900
H784        H  0.38377285  0.17121798  0.73215518     0.11000
H785        H  0.37992510  0.18418618  0.76420629     0.10700
H786        H  0.36055794  0.18128728  0.76301439     0.11800
H787        H  0.39996193  0.17508618  0.74267620     0.11900
H788        H  0.39570705  0.19197811  0.76014108     0.13800
H789        H  0.41149355  0.20240155  0.76539362     0.10300
H790        H  0.43080770  0.20360792  0.76890933     0.12400
H791        H  0.43594129  0.17485886  0.75010018     0.09000
H792        H  0.41678494  0.17333797  0.74693884     0.11700
C793        C  0.36059593  0.31348847  0.73245830    -0.02900
C794        C  0.36530859  0.31495478  0.72228158    -0.05500
C795        C  0.37633565  0.31330920  0.72077182    -0.20600
C796        C  0.38293817  0.30995470  0.72932457     0.25200
C797        C  0.37829005  0.30870227  0.73959644    -0.18100
C798        C  0.36723962  0.31049503  0.74114224    -0.08100
C799        C  0.39459887  0.30810642  0.72711319    -0.18400
C800        C  0.40111564  0.30175936  0.73309880    -0.23200
C801        C  0.41270105  0.29978119  0.73046947     0.27200
C802        C  0.41968570  0.29608568  0.73860369    -0.19900
C803        C  0.43067498  0.29449585  0.73652277    -0.09600
C804        C  0.43488501  0.29653215  0.72623653    -0.10100
C805        C  0.42787604  0.29987041  0.71802207    -0.03100
C806        C  0.41691430  0.30136803  0.72005577    -0.18200
H807        H  0.36044191  0.31729303  0.71542778     0.10900
H808        H  0.37969029  0.31445697  0.71280256     0.11000
H809        H  0.38313242  0.30642276  0.74646854     0.10700
H810        H  0.36384840  0.30927878  0.74908146     0.11800
H811        H  0.39780087  0.31202545  0.72000336     0.11900
H812        H  0.39794902  0.29790885  0.74027073     0.13800
H813        H  0.41667722  0.29466844  0.74666373     0.10300
H814        H  0.43593355  0.29202308  0.74302837     0.12400
H815        H  0.43091907  0.30137785  0.70998850     0.09000
H816        H  0.41183198  0.30373419  0.71339891     0.11700
C817        C  0.32992213  0.28190970  0.73954624    -0.02900
C818        C  0.32872028  0.27721950  0.74976904    -0.05500
C819        C  0.32944008  0.26606098  0.75104965    -0.20600
C820        C  0.33135060  0.25934715  0.74215941     0.25200
C821        C  0.33272525  0.26406104  0.73193661    -0.18100
C822        C  0.33194048  0.27521818  0.73064776    -0.08100
C823        C  0.33201112  0.24753433  0.74396042    -0.18400
C824        C  0.33026216  0.24018533  0.73616426    -0.23200
C825        C  0.33043504  0.22836244  0.73801221     0.27200
C826        C  0.32873586  0.22373985  0.74823027    -0.19900
C827        C  0.32850974  0.21254695  0.74946834    -0.09600
C828        C  0.32988565  0.20573979  0.74053212    -0.10100
C829        C  0.33160190  0.21036503  0.73034656    -0.03100
C830        C  0.33183493  0.22154442  0.72911023    -0.18200
H831        H  0.32716010  0.28216611  0.75678299     0.10900
H832        H  0.32841202  0.26264924  0.75901362     0.11000
H833        H  0.33459447  0.25924345  0.72493062     0.10700
H834        H  0.33306767  0.27861764  0.72269522     0.11800
H835        H  0.33372205  0.24488917  0.75210457     0.11900
H836        H  0.32854841  0.24283892  0.72802289     0.13800
H837        H  0.32727768  0.22866589  0.75525779     0.10300
H838        H  0.32709884  0.20923265  0.75741023     0.12400
H839        H  0.33269616  0.20535147  0.72329206     0.09000
H840        H  0.33308729  0.22488427  0.72114741     0.11700
C841        C  0.29591988  0.31287762  0.73894211    -0.02900
C842        C  0.28946952  0.31089580  0.72985331    -0.05500
C843        C  0.27826637  0.31060247  0.73071103    -0.20600
C844        C  0.27315135  0.31230169  0.74065077     0.25200
C845        C  0.27961312  0.31420581  0.74980971    -0.18100
C846        C  0.29086461  0.31447075  0.74894535    -0.08100
C847        C  0.26112867  0.31211418  0.74085693    -0.18400
C848        C  0.25497755  0.31384460  0.74964292    -0.23200
C849        C  0.24297651  0.31374791  0.74934440     0.27200
C850        C  0.23729612  0.31162064  0.75888117    -0.19900
C851        C  0.22603192  0.31151902  0.75896201    -0.09600
C852        C  0.22016531  0.31359499  0.74949405    -0.10100
C853        C  0.22583511  0.31588194  0.73997667    -0.03100
C854        C  0.23709822  0.31602865  0.73990539    -0.18200
H855        H  0.29306998  0.30959597  0.72202064     0.10900
H856        H  0.27356244  0.30910300  0.72351149     0.11000
H857        H  0.27613642  0.31554211  0.75765921     0.10700
H858        H  0.29560122  0.31599731  0.75611349     0.11800
H859        H  0.25716704  0.31033682  0.73327245     0.11900
H860        H  0.25870236  0.31508070  0.75743149     0.13800
H861        H  0.24159322  0.30994414  0.76628856     0.10300
H862        H  0.22192121  0.30974967  0.76644381     0.12400
H863        H  0.22156488  0.31767473  0.73258459     0.09000
H864        H  0.24111798  0.31812784  0.73247616     0.11700
C865        C  0.21981221  0.17181898  0.74049449    -0.02900
C866        C  0.22464507  0.17328507  0.75061708    -0.05500
C867        C  0.23584618  0.17350200  0.75162892    -0.20600
C868        C  0.24251407  0.17220241  0.74258273     0.25200
C869        C  0.23763952  0.17052415  0.73245529    -0.18100
C870        C  0.22643106  0.17036835  0.73144541    -0.08100
C871        C  0.25440232  0.17289141  0.74419176    -0.18400
C872        C  0.26180461  0.17154125  0.73635516    -0.23200
C873        C  0.27364794  0.17246102  0.73807845     0.27200
C874        C  0.28033614  0.17341014  0.72901028    -0.19900
C875        C  0.29151667  0.17402675  0.73014127    -0.09600
C876        C  0.29629370  0.17370650  0.74039825    -0.10100
C877        C  0.28962953  0.17281027  0.74948936    -0.03100
C878        C  0.27845299  0.17211980  0.74836130    -0.18200
H879        H  0.21977430  0.17443670  0.75775368     0.10900
H880        H  0.23931676  0.17478484  0.75953595     0.11000
H881        H  0.24230524  0.16944833  0.72521202     0.10700
H882        H  0.22294558  0.16915293  0.72353775     0.11800
H883        H  0.25706708  0.17486066  0.75226456     0.11900
H884        H  0.25923704  0.16989794  0.72818921     0.13800
H885        H  0.27689793  0.17364270  0.72099028     0.10300
H886        H  0.29641871  0.17469513  0.72296526     0.12400
H887        H  0.29306390  0.17241455  0.75750091     0.09000
H888        H  0.27373315  0.17107333  0.75558348     0.11700
C889        C  0.18763867  0.28064212  0.74891223    -0.02900
C890        C  0.18838713  0.27460065  0.75845165    -0.05500
C891        C  0.18783840  0.26335737  0.75814793    -0.20600
C892        C  0.18662614  0.25790875  0.74831602     0.25200
C893        C  0.18579155  0.26394932  0.73876511    -0.18100
C894        C  0.18634174  0.27519167  0.73906552    -0.08100
C895        C  0.18594077  0.24596809  0.74839889    -0.18400
C896        C  0.18889191  0.23980645  0.73996101    -0.23200
C897        C  0.18849728  0.22781494  0.73985249     0.27200
C898        C  0.18996351  0.22248993  0.72997760    -0.19900
C899        C  0.18981502  0.21124382  0.72940515    -0.09600
C900        C  0.18824580  0.20504604  0.73873341    -0.10100
C901        C  0.18683275  0.21034253  0.74863577    -0.03100
C902        C  0.18697866  0.22158441  0.74921487    -0.18200
H903        H  0.18935447  0.27855475  0.76616970     0.10900
H904        H  0.18841973  0.25889085  0.76562060     0.11000
H905        H  0.18447127  0.26007194  0.73107101     0.10700
H906        H  0.18558716  0.27961629  0.73158837     0.11800
H907        H  0.18317844  0.24228514  0.75579628     0.11900
H908        H  0.19184889  0.24369113  0.73271813     0.13800
H909        H  0.19121242  0.22705371  0.72264711     0.10300
H910        H  0.19095753  0.20741418  0.72165311     0.12400
H911        H  0.18564276  0.20579917  0.75598537     0.09000
H912        H  0.18606367  0.22522577  0.75705466     0.11700
C913        C  0.08228971  0.19379227  0.72676750    -0.02900
C914        C  0.08921600  0.20270252  0.72561225    -0.05500
C915        C  0.10021465  0.20177571  0.72808813    -0.20600
C916        C  0.10453295  0.19185070  0.73139146     0.25200
C917        C  0.09756037  0.18308917  0.73291123    -0.18100
C918        C  0.08659535  0.18407358  0.73069800    -0.08100
C919        C  0.11631333  0.19061494  0.73307727    -0.18400
C920        C  0.12156430  0.18169037  0.72980580    -0.23200
C921        C  0.13329302  0.17998140  0.73129223     0.27200
C922        C  0.13901681  0.17418929  0.72345473    -0.19900
C923        C  0.15001462  0.17213923  0.72474274    -0.09600
C924        C  0.15542812  0.17552856  0.73408111    -0.10100
C925        C  0.14965130  0.18112802  0.74204844    -0.03100
C926        C  0.13870578  0.18343265  0.74062350    -0.18200
H927        H  0.08629962  0.21022720  0.72233819     0.10900
H928        H  0.10544346  0.20866439  0.72692685     0.11000
H929        H  0.10060559  0.17542129  0.73574385     0.10700
H930        H  0.08149618  0.17708516  0.73182099     0.11800
H931        H  0.12079326  0.19732547  0.73647408     0.11900
H932        H  0.11716195  0.17554677  0.72537662     0.13800
H933        H  0.13498329  0.17135297  0.71625077     0.10300
H934        H  0.15427217  0.16782290  0.71847572     0.12400
H935        H  0.15365428  0.18391366  0.74928745     0.09000
H936        H  0.13444270  0.18771435  0.74690494     0.11700
C937        C  0.06575171  0.27920301  0.76439798    -0.02900
C938        C  0.06427410  0.26998494  0.77075707    -0.05500
C939        C  0.06545335  0.25972618  0.76631308    -0.20600
C940        C  0.06818063  0.25843073  0.75541746     0.25200
C941        C  0.07014269  0.26771124  0.74915481    -0.18100
C942        C  0.06886254  0.27799759  0.75361123    -0.08100
C943        C  0.06872625  0.24727277  0.75101929    -0.18400
C944        C  0.06835207  0.24488119  0.74042681    -0.23200
C945        C  0.06775851  0.23369714  0.73606172     0.27200
C946        C  0.06476309  0.23232912  0.72522840    -0.19900
C947        C  0.06362929  0.22203314  0.72081895    -0.09600
C948        C  0.06547620  0.21286590  0.72714350    -0.10100
C949        C  0.06873600  0.21414634  0.73788043    -0.03100
C950        C  0.06993901  0.22444995  0.74230370    -0.18200
H951        H  0.06204767  0.27074859  0.77915034     0.10900
H952        H  0.06401903  0.25276296  0.77137549     0.11000
H953        H  0.07262130  0.26713958  0.74083679     0.10700
H954        H  0.07008566  0.28502792  0.74859640     0.11800
H955        H  0.06863369  0.24081056  0.75687835     0.11900
H956        H  0.06770926  0.25136146  0.73461455     0.13800
H957        H  0.06314080  0.23925935  0.72018143     0.10300
H958        H  0.06126017  0.22119368  0.71246480     0.12400
H959        H  0.07025426  0.20714215  0.74284968     0.09000
H960        H  0.07259325  0.22503226  0.75056863     0.11700
C961        C  0.08098999  0.29972266  0.76378271    -0.02900
C962        C  0.08409118  0.30969651  0.75938728    -0.05500
C963        C  0.09481859  0.31181938  0.75684096    -0.20600
C964        C  0.10275620  0.30396635  0.75835877     0.25200
C965        C  0.09966491  0.29374157  0.76221610    -0.18100
C966        C  0.08887405  0.29167068  0.76499967    -0.08100
C967        C  0.11420892  0.30717813  0.75689447    -0.18400
C968        C  0.12201689  0.30052530  0.75341477    -0.23200
C969        C  0.13339225  0.30417595  0.75219693     0.27200
C970        C  0.13973365  0.30003587  0.74380755    -0.19900
C971        C  0.15056163  0.30307088  0.74276305    -0.09600
C972        C  0.15536147  0.31005074  0.75029774    -0.10100
C973        C  0.14903196  0.31417952  0.75870206    -0.03100
C974        C  0.13813919  0.31137662  0.75957828    -0.18200
H975        H  0.07824241  0.31606351  0.75828502     0.10900
H976        H  0.09697082  0.31975255  0.75389759     0.11000
H977        H  0.10565056  0.28758177  0.76367179     0.10700
H978        H  0.08685889  0.28401195  0.76864174     0.11800
H979        H  0.11618373  0.31559429  0.75831132     0.11900
H980        H  0.11995314  0.29238523  0.75093444     0.13800
H981        H  0.13630492  0.29441643  0.73807097     0.10300
H982        H  0.15530648  0.29960464  0.73632159     0.12400
H983        H  0.15255689  0.31947401  0.76468195     0.09000
H984        H  0.13354447  0.31454537  0.76626957     0.11700
C985        C  0.97353395  0.22544444  0.70206698    -0.02900
C986        C  0.97499797  0.22010006  0.71193417    -0.05500
C987        C  0.98538836  0.21868550  0.71618735    -0.20600
C988        C  0.99447914  0.22250740  0.71061055     0.25200
C989        C  0.99286803  0.22848531  0.70110960    -0.18100
C990        C  0.98254555  0.22981713  0.69684814    -0.08100
C991        C  0.00551646  0.21967487  0.71450124    -0.18400
C992        C  0.01384426  0.21842352  0.70763399    -0.23200
C993        C  0.02461267  0.21406492  0.71059816     0.27200
C994        C  0.03050128  0.20879605  0.70253431    -0.19900
C995        C  0.04046973  0.20417474  0.70479215    -0.09600
C996        C  0.04496054  0.20486663  0.71513693    -0.10100
C997        C  0.03931179  0.21047106  0.72319606    -0.03100
C998        C  0.02917417  0.21501723  0.72095958    -0.18200
H999        H  0.96818763  0.21656252  0.71606848     0.10900
H1000       H  0.98636491  0.21415301  0.72357690     0.11000
H1001       H  0.99957985  0.23198087  0.69680116     0.10700
H1002       H  0.98161118  0.23406729  0.68928530     0.11800
H1003       H  0.00651588  0.21751056  0.72291484     0.11900
H1004       H  0.01243659  0.21959889  0.69908620     0.13800
H1005       H  0.02724178  0.20799782  0.69447404     0.10300
H1006       H  0.04464533  0.19989911  0.69844063     0.12400
H1007       H  0.04255825  0.21101779  0.73127556     0.09000
H1008       H  0.02494492  0.21922114  0.72730809     0.11700
C1009       C  0.97375850  0.26767429  0.79044728    -0.02900
C1010       C  0.97589740  0.27045143  0.77969802    -0.05500
C1011       C  0.98650446  0.27053096  0.77582480    -0.20600
C1012       C  0.99518962  0.26787517  0.78261115     0.25200
C1013       C  0.99287795  0.26433455  0.79315786    -0.18100
C1014       C  0.98231812  0.26440527  0.79704593    -0.08100
C1015       C  0.00644470  0.26972870  0.77867356    -0.18400
C1016       C  0.01499249  0.27068503  0.78534299    -0.23200
C1017       C  0.02564925  0.27517898  0.78214092     0.27200
C1018       C  0.03172845  0.28038481  0.79013216    -0.19900
C1019       C  0.04129244  0.28567161  0.78757320    -0.09600
C1020       C  0.04520003  0.28569140  0.77698850    -0.10100
C1021       C  0.03946772  0.28003777  0.76900639    -0.03100
C1022       C  0.02972590  0.27483322  0.77154748    -0.18200
H1023       H  0.96944618  0.27309787  0.77446224     0.10900
H1024       H  0.98796753  0.27317992  0.76764321     0.11000
H1025       H  0.99914453  0.26172196  0.79858924     0.10700
H1026       H  0.98084454  0.26212475  0.80533788     0.11800
H1027       H  0.00746154  0.27165095  0.77020659     0.11900
H1028       H  0.01387435  0.26950366  0.79390763     0.13800
H1029       H  0.02884837  0.28073727  0.79835994     0.10300
H1030       H  0.04556561  0.28996264  0.79386446     0.12400
H1031       H  0.04230183  0.28000060  0.76076065     0.09000
H1032       H  0.02537897  0.27069219  0.76522400     0.11700
C1033       C  0.95182658  0.25974083  0.78149584    -0.02900
C1034       C  0.95822495  0.25058376  0.77979162    -0.05500
C1035       C  0.95819178  0.24536894  0.76983056    -0.20600
C1036       C  0.95153656  0.24901312  0.76147465     0.25200
C1037       C  0.94463582  0.25779428  0.76335952    -0.18100
C1038       C  0.94482089  0.26314612  0.77329785    -0.08100
C1039       C  0.95290429  0.24433387  0.75059031    -0.18400
C1040       C  0.94485091  0.24329962  0.74343367    -0.23200
C1041       C  0.94692678  0.23935763  0.73237554     0.27200
C1042       C  0.94014291  0.23161927  0.72770933    -0.19900
C1043       C  0.94221926  0.22774099  0.71732265    -0.09600
C1044       C  0.95092570  0.23178816  0.71132313    -0.10100
C1045       C  0.95748573  0.23978733  0.71591117    -0.03100
C1046       C  0.95558528  0.24345030  0.72637044    -0.18200
H1047       H  0.96359233  0.24775658  0.78605405     0.10900
H1048       H  0.96358313  0.23863452  0.76855025     0.11000
H1049       H  0.93957595  0.26090963  0.75697914     0.10700
H1050       H  0.93992775  0.27027307  0.77439257     0.11800
H1051       H  0.96089452  0.24151843  0.74840489     0.11900
H1052       H  0.93662167  0.24504912  0.74579583     0.13800
H1053       H  0.93340371  0.22839564  0.73220442     0.10300
H1054       H  0.93712101  0.22147478  0.71403906     0.12400
H1055       H  0.96407556  0.24322988  0.71137320     0.09000
H1056       H  0.96078307  0.24961356  0.72971975     0.11700
C1057       C  0.31015350  0.06792558  0.76016985    -0.02900
C1058       C  0.31163886  0.07451158  0.76922059    -0.05500
C1059       C  0.31226706  0.08569078  0.76811233    -0.20600
C1060       C  0.31175201  0.09050045  0.75789836     0.25200
C1061       C  0.30991048  0.08390494  0.74882655    -0.18100
C1062       C  0.30907504  0.07268333  0.74998050    -0.08100
C1063       C  0.31333547  0.10236282  0.75714319    -0.18400
C1064       C  0.31767962  0.10730547  0.74850657    -0.23200
C1065       C  0.32020184  0.11905676  0.74810351     0.27200
C1066       C  0.32161833  0.12395522  0.73801400    -0.19900
C1067       C  0.32412046  0.13492044  0.73722557    -0.09600
C1068       C  0.32534337  0.14126911  0.74653516    -0.10100
C1069       C  0.32411472  0.13634776  0.75665330    -0.03100
C1070       C  0.32163226  0.12536664  0.75744381    -0.18200
H1071       H  0.31258442  0.07095726  0.77713271     0.10900
H1072       H  0.31359498  0.09057329  0.77522865     0.11000
H1073       H  0.30918443  0.08735671  0.74085953     0.10700
H1074       H  0.30803258  0.06769244  0.74289579     0.11800
H1075       H  0.31139389  0.10703280  0.76426064     0.11900
H1076       H  0.31961042  0.10256971  0.74141607     0.13800
H1077       H  0.32067560  0.11929821  0.73069113     0.10300
H1078       H  0.32494818  0.13845070  0.72929289     0.12400
H1079       H  0.32503671  0.14099059  0.76398338     0.09000
H1080       H  0.32101216  0.12188774  0.76539789     0.11700
C1081       C  0.22162560  0.04900820  0.72858486    -0.02900
C1082       C  0.22967355  0.04717474  0.72091666    -0.05500
C1083       C  0.24051963  0.04814060  0.72371982    -0.20600
C1084       C  0.24357660  0.05088828  0.73427755     0.25200
C1085       C  0.23543126  0.05297599  0.74191268    -0.18100
C1086       C  0.22455547  0.05211052  0.73903996    -0.08100
C1087       C  0.25527989  0.05073101  0.73699336    -0.18400
C1088       C  0.25954771  0.05409712  0.74641541    -0.23200
C1089       C  0.27116912  0.05292679  0.74919710     0.27200
C1090       C  0.27552219  0.05932634  0.75747178    -0.19900
C1091       C  0.28623441  0.05803624  0.76073459    -0.09600
C1092       C  0.29280563  0.05027249  0.75581668    -0.10100
C1093       C  0.28851919  0.04394216  0.74748606    -0.03100
C1094       C  0.27781484  0.04517461  0.74425663    -0.18200
H1095       H  0.22752423  0.04477061  0.71280716     0.10900
H1096       H  0.24655888  0.04646727  0.71766303     0.11000
H1097       H  0.23731618  0.05492901  0.75017968     0.10700
H1098       H  0.21841072  0.05342169  0.74507406     0.11800
H1099       H  0.26061828  0.04763733  0.73082311     0.11900
H1100       H  0.25447342  0.05797510  0.75234792     0.13800
H1101       H  0.27057957  0.06526840  0.76150695     0.10300
H1102       H  0.28930970  0.06290494  0.76728689     0.12400
H1103       H  0.29345456  0.03792890  0.74355934     0.09000
H1104       H  0.27476059  0.03981286  0.73810824     0.11700
C1105       C  0.20231529  0.06537718  0.72885987    -0.02900
C1106       C  0.21014162  0.07202100  0.72411745    -0.05500
C1107       C  0.20918406  0.08327077  0.72462838    -0.20600
C1108       C  0.20043215  0.08810840  0.72992535     0.25200
C1109       C  0.19274837  0.08141068  0.73488366    -0.18100
C1110       C  0.19371428  0.07020889  0.73437168    -0.08100
C1111       C  0.19918370  0.10006258  0.72952562    -0.18400
C1112       C  0.19311455  0.10566728  0.73657812    -0.23200
C1113       C  0.19159389  0.11755737  0.73616684     0.27200
C1114       C  0.18880694  0.12296932  0.74568901    -0.19900
C1115       C  0.18724581  0.13412043  0.74574059    -0.09600
C1116       C  0.18829619  0.14014427  0.73621625    -0.10100
C1117       C  0.19080968  0.13469889  0.72659446    -0.03100
C1118       C  0.19244203  0.12352161  0.72656009    -0.18200
H1119       H  0.21667826  0.06856395  0.71952293     0.10900
H1120       H  0.21516150  0.08821250  0.72063962     0.11000
H1121       H  0.18570701  0.08471217  0.73877213     0.10700
H1122       H  0.18749098  0.06528464  0.73799076     0.11800
H1123       H  0.20365394  0.10437318  0.72337799     0.11900
H1124       H  0.18946585  0.10149773  0.74332548     0.13800
H1125       H  0.18798097  0.11856384  0.75317376     0.10300
H1126       H  0.18532175  0.13803421  0.75329448     0.12400
H1127       H  0.19165182  0.13908870  0.71910668     0.09000
H1128       H  0.19424360  0.11959241  0.71899401     0.11700
C1129       C  0.29109412  0.95667937  0.78304238    -0.02900
C1130       C  0.30169206  0.96037091  0.78185732    -0.05500
C1131       C  0.30383676  0.97012956  0.77669760    -0.20600
C1132       C  0.29542712  0.97659880  0.77280102     0.25200
C1133       C  0.28478330  0.97273044  0.77362079    -0.18100
C1134       C  0.28264719  0.96281784  0.77868525    -0.08100
C1135       C  0.29828222  0.98733930  0.76821701    -0.18400
C1136       C  0.29156631  0.99588643  0.76778879    -0.23200
C1137       C  0.29530057  0.00697146  0.76486668     0.27200
C1138       C  0.28961285  0.01595489  0.76878081    -0.19900
C1139       C  0.29355481  0.02643986  0.76722622    -0.09600
C1140       C  0.30323344  0.02813677  0.76165350    -0.10100
C1141       C  0.30861504  0.01923286  0.75725186    -0.03100
C1142       C  0.30464756  0.00878936  0.75871429    -0.18200
H1143       H  0.30833278  0.95579115  0.78517708     0.10900
H1144       H  0.31210831  0.97282544  0.77611022     0.11000
H1145       H  0.27810465  0.97735538  0.77048519     0.10700
H1146       H  0.27439502  0.96016619  0.77959284     0.11800
H1147       H  0.30668089  0.98849218  0.76616807     0.11900
H1148       H  0.28338804  0.99502734  0.77071072     0.13800
H1149       H  0.28234772  0.01483305  0.77345974     0.10300
H1150       H  0.28932056  0.03315713  0.77082626     0.12400
H1151       H  0.31605016  0.02035365  0.75284349     0.09000
H1152       H  0.30904983  0.00218972  0.75513558     0.11700
C1153       C  0.23528514  0.95853448  0.69818577    -0.02900
C1154       C  0.23831945  0.96687805  0.69120806    -0.05500
C1155       C  0.23707455  0.97763423  0.69425716    -0.20600
C1156       C  0.23266855  0.98032214  0.70431509     0.25200
C1157       C  0.23004370  0.97192836  0.71151552    -0.18100
C1158       C  0.23139004  0.96112417  0.70847142    -0.08100
C1159       C  0.22986687  0.99182450  0.70633591    -0.18400
C1160       C  0.22699805  0.99592877  0.71596910    -0.23200
C1161       C  0.22267942  0.00705640  0.71721524     0.27200
C1162       C  0.22361073  0.01234503  0.72719089    -0.19900
C1163       C  0.21882067  0.02244057  0.72882459    -0.09600
C1164       C  0.21283395  0.02729285  0.72056176    -0.10100
C1165       C  0.21195671  0.02208545  0.71058250    -0.03100
C1166       C  0.21686087  0.01210714  0.70888744    -0.18200
H1167       H  0.24128855  0.96505664  0.68321065     0.10900
H1168       H  0.23914975  0.98388755  0.68853506     0.11000
H1169       H  0.22642206  0.97358764  0.71925008     0.10700
H1170       H  0.22878599  0.95480730  0.71389370     0.11800
H1171       H  0.22997055  0.99714482  0.69939308     0.11900
H1172       H  0.22774503  0.99106498  0.72318644     0.13800
H1173       H  0.22791460  0.00857671  0.73377845     0.10300
H1174       H  0.21942951  0.02625858  0.73664733     0.12400
H1175       H  0.20726040  0.02565836  0.70415402     0.09000
H1176       H  0.21564507  0.00817706  0.70120314     0.11700
C1177       C  0.24430313  0.93768248  0.70889704    -0.02900
C1178       C  0.25302826  0.94465856  0.71057160    -0.05500
C1179       C  0.25877624  0.94443404  0.72024090    -0.20600
C1180       C  0.25598815  0.93720726  0.72849346     0.25200
C1181       C  0.24736035  0.93002476  0.72671815    -0.18100
C1182       C  0.24156492  0.93030675  0.71702528    -0.08100
C1183       C  0.26240691  0.93751953  0.73866294    -0.18400
C1184       C  0.25975631  0.93241239  0.74788892    -0.23200
C1185       C  0.26611649  0.93349229  0.75803535     0.27200
C1186       C  0.26100097  0.93160585  0.76795015    -0.19900
C1187       C  0.26655673  0.93302179  0.77766806    -0.09600
C1188       C  0.27737657  0.93626949  0.77766736    -0.10100
C1189       C  0.28263187  0.93774805  0.76777907    -0.03100
C1190       C  0.27709642  0.93634615  0.75806425    -0.18200
H1191       H  0.25540252  0.95029934  0.70436045     0.10900
H1192       H  0.26541657  0.94999799  0.72129337     0.11000
H1193       H  0.24502019  0.92416080  0.73270297     0.10700
H1194       H  0.23482730  0.92488152  0.71593819     0.11800
H1195       H  0.26942814  0.94271777  0.73862430     0.11900
H1196       H  0.25234770  0.92782531  0.74833630     0.13800
H1197       H  0.25259966  0.92928405  0.76818568     0.10300
H1198       H  0.26233638  0.93185497  0.78520300     0.12400
H1199       H  0.29104787  0.94000058  0.76759197     0.09000
H1200       H  0.28149716  0.93743242  0.75063565     0.11700
C1201       C  0.26957401  0.55053530  0.71744883    -0.02900
C1202       C  0.25873467  0.55363997  0.71733483    -0.05500
C1203       C  0.25309868  0.55492379  0.72700279    -0.20600
C1204       C  0.25818754  0.55311287  0.73696114     0.25200
C1205       C  0.26919087  0.55036737  0.73702328    -0.18100
C1206       C  0.27478137  0.54902597  0.72735463    -0.08100
C1207       C  0.25176473  0.55423149  0.74703670    -0.18400
C1208       C  0.25455920  0.54959125  0.75647121    -0.23200
C1209       C  0.24807869  0.55004597  0.76658114     0.27200
C1210       C  0.25160954  0.54395466  0.77545760    -0.19900
C1211       C  0.24567786  0.54368346  0.78500847    -0.09600
C1212       C  0.23606942  0.54950389  0.78591012    -0.10100
C1213       C  0.23263518  0.55584651  0.77721827    -0.03100
C1214       C  0.23856242  0.55614426  0.76764338    -0.18200
H1215       H  0.25459766  0.55483304  0.70974837     0.10900
H1216       H  0.24467761  0.55714894  0.72669597     0.11000
H1217       H  0.27357997  0.54932636  0.74446893     0.10700
H1218       H  0.28320452  0.54681123  0.72757153     0.11800
H1219       H  0.24424416  0.55857328  0.74637138     0.11900
H1220       H  0.26180370  0.54474407  0.75679287     0.13800
H1221       H  0.25892821  0.53924668  0.77495823     0.10300
H1222       H  0.24849775  0.53881783  0.79167495     0.12400
H1223       H  0.22520442  0.56035918  0.77776598     0.09000
H1224       H  0.23553688  0.56109603  0.76117130     0.11700
C1225       C  0.30333468  0.46121584  0.73390292    -0.02900
C1226       C  0.30869959  0.46966298  0.73916001    -0.05500
C1227       C  0.30479045  0.48018451  0.73858195    -0.20600
C1228       C  0.29546097  0.48256723  0.73266014     0.25200
C1229       C  0.28967017  0.47398046  0.72795441    -0.18100
C1230       C  0.29358424  0.46338651  0.72859806    -0.08100
C1231       C  0.29308708  0.49413696  0.73044219    -0.18400
C1232       C  0.28417840  0.49788672  0.72550140    -0.23200
C1233       C  0.28346557  0.50914730  0.72139030     0.27200
C1234       C  0.27339457  0.51420743  0.72042813    -0.19900
C1235       C  0.27250523  0.52438577  0.71557856    -0.09600
C1236       C  0.28165993  0.52956794  0.71142942    -0.10100
C1237       C  0.29172170  0.52457325  0.71249740    -0.03100
C1238       C  0.29263711  0.51451601  0.71745087    -0.18200
H1239       H  0.31622787  0.46819196  0.74331316     0.10900
H1240       H  0.30941905  0.48658418  0.74230843     0.11000
H1241       H  0.28251732  0.47542200  0.72321533     0.10700
H1242       H  0.28938502  0.45704067  0.72432380     0.11800
H1243       H  0.29936922  0.49986727  0.73252154     0.11900
H1244       H  0.27735332  0.49261512  0.72412222     0.13800
H1245       H  0.26619073  0.51018456  0.72324544     0.10300
H1246       H  0.26462235  0.52797859  0.71463852     0.12400
H1247       H  0.29886935  0.52835642  0.70923687     0.09000
H1248       H  0.30048519  0.51075102  0.71770296     0.11700
C1249       C  0.31183922  0.42163060  0.73118723    -0.02900
C1250       C  0.30666366  0.41612380  0.73959830    -0.05500
C1251       C  0.30762293  0.40490116  0.74054990    -0.20600
C1252       C  0.31381993  0.39893499  0.73317986     0.25200
C1253       C  0.31886255  0.40447820  0.72467251    -0.18100
C1254       C  0.31781487  0.41563773  0.72367648    -0.08100
C1255       C  0.31537220  0.38713587  0.73503449    -0.18400
C1256       C  0.31932400  0.38028194  0.72756842    -0.23200
C1257       C  0.32129916  0.36858505  0.72947153     0.27200
C1258       C  0.32225553  0.36175085  0.72050715    -0.19900
C1259       C  0.32424153  0.35074225  0.72181558    -0.09600
C1260       C  0.32543885  0.34627765  0.73215043    -0.10100
C1261       C  0.32469476  0.35313455  0.74114534    -0.03100
C1262       C  0.32266752  0.36416718  0.73983472    -0.18200
H1263       H  0.30229541  0.42049406  0.74573294     0.10900
H1264       H  0.30373479  0.40089580  0.74725073     0.11000
H1265       H  0.32396437  0.40038416  0.71894952     0.10700
H1266       H  0.32196992  0.41964745  0.71714113     0.11800
H1267       H  0.31297885  0.38400951  0.74283274     0.11900
H1268       H  0.32087715  0.38318325  0.71948582     0.13800
H1269       H  0.32136452  0.36492907  0.71242829     0.10300
H1270       H  0.32477318  0.34571568  0.71470334     0.12400
H1271       H  0.32560136  0.34996472  0.74922159     0.09000
H1272       H  0.32233666  0.36918027  0.74695028     0.11700
C1273       C  0.21192326  0.45785733  0.77253635    -0.02900
C1274       C  0.21905310  0.46269743  0.76520048    -0.05500
C1275       C  0.22315418  0.47306415  0.76716931    -0.20600
C1276       C  0.22029465  0.47873908  0.77654159     0.25200
C1277       C  0.21321780  0.47381374  0.78389442    -0.18100
C1278       C  0.20910705  0.46352412  0.78190703    -0.08100
C1279       C  0.22404440  0.49006270  0.77811793    -0.18400
C1280       C  0.22519169  0.49445973  0.78799703    -0.23200
C1281       C  0.22720333  0.50609767  0.79031260     0.27200
C1282       C  0.22899501  0.50907558  0.80107715    -0.19900
C1283       C  0.22930898  0.51990191  0.80410622    -0.09600
C1284       C  0.22785170  0.52810016  0.79645906    -0.10100
C1285       C  0.22658182  0.52520947  0.78557707    -0.03100
C1286       C  0.22628499  0.51431112  0.78251044    -0.18200
H1287       H  0.22112171  0.45867315  0.75775207     0.10900
H1288       H  0.22844128  0.47672836  0.76128462     0.11000
H1289       H  0.21048289  0.47803380  0.79100792     0.10700
H1290       H  0.20352187  0.46005727  0.78763379     0.11800
H1291       H  0.22576924  0.49478807  0.77098171     0.11900
H1292       H  0.22428121  0.48924219  0.79495868     0.13800
H1293       H  0.22972865  0.50298118  0.80728045     0.10300
H1294       H  0.23030238  0.52187196  0.81255280     0.12400
H1295       H  0.22516952  0.53131986  0.77952201     0.09000
H1296       H  0.22476187  0.51243171  0.77414732     0.11700
C1297       C  0.22210330  0.43703006  0.76308306    -0.02900
C1298       C  0.23005246  0.43858806  0.77092829    -0.05500
C1299       C  0.24093219  0.43790018  0.76820898    -0.20600
C1300       C  0.24412353  0.43572080  0.75756265     0.25200
C1301       C  0.23606880  0.43399108  0.74971956    -0.18100
C1302       C  0.22516271  0.43457755  0.75250215    -0.08100
C1303       C  0.25588252  0.43587429  0.75509483    -0.18400
C1304       C  0.26024836  0.43384501  0.74534613    -0.23200
C1305       C  0.27194787  0.43509163  0.74292055     0.27200
C1306       C  0.27608437  0.43044434  0.73345286    -0.19900
C1307       C  0.28683984  0.43204143  0.73048639    -0.09600
C1308       C  0.29364000  0.43838612  0.73690011    -0.10100
C1309       C  0.28961290  0.44291219  0.74641764    -0.03100
C1310       C  0.27889022  0.44134050  0.74939537    -0.18200
H1311       H  0.22779789  0.44046371  0.77914082     0.10900
H1312       H  0.24689015  0.43927932  0.77443388     0.11000
H1313       H  0.23802445  0.43238729  0.74140420     0.10700
H1314       H  0.21908635  0.43343699  0.74635005     0.11800
H1315       H  0.26116025  0.43787261  0.76175433     0.11900
H1316       H  0.25517370  0.43119448  0.73876704     0.13800
H1317       H  0.27093346  0.42568622  0.72825324     0.10300
H1318       H  0.28980137  0.42856775  0.72305934     0.12400
H1319       H  0.29476517  0.44784704  0.75144471     0.09000
H1320       H  0.27607773  0.44537003  0.75656964     0.11700
C1321       C  0.20378549  0.41976370  0.76109152    -0.02900
C1322       C  0.21188789  0.41299189  0.76512626    -0.05500
C1323       C  0.21135814  0.40181718  0.76344030    -0.20600
C1324       C  0.20276535  0.39719023  0.75765906     0.25200
C1325       C  0.19492385  0.40407441  0.75324038    -0.18100
C1326       C  0.19545554  0.41519542  0.75493604    -0.08100
C1327       C  0.20166598  0.38520200  0.75730252    -0.18400
C1328       C  0.19533570  0.37989327  0.75021052    -0.23200
C1329       C  0.19347914  0.36802704  0.75048238     0.27200
C1330       C  0.19047548  0.36272301  0.74094699    -0.19900
C1331       C  0.18845256  0.35162175  0.74089111    -0.09600
C1332       C  0.18920597  0.34556881  0.75043416    -0.10100
C1333       C  0.19193871  0.35092816  0.76004997    -0.03100
C1334       C  0.19406460  0.36202170  0.76008233    -0.18200
H1335       H  0.21826270  0.41621737  0.77012650     0.10900
H1336       H  0.21747396  0.39672680  0.76700746     0.11000
H1337       H  0.18802519  0.40093049  0.74895859     0.10700
H1338       H  0.18905652  0.42021861  0.75179752     0.11800
H1339       H  0.20625031  0.38060487  0.76315912     0.11900
H1340       H  0.19152889  0.38430572  0.74370451     0.13800
H1341       H  0.18981885  0.36717056  0.73346814     0.10300
H1342       H  0.18637718  0.34776827  0.73334141     0.12400
H1343       H  0.19259502  0.34652048  0.76754895     0.09000
H1344       H  0.19600663  0.36587475  0.76765745     0.11700
C1345       C  0.93376914  0.26910648  0.79664997    -0.02900
C1346       C  0.92715678  0.27823496  0.79743945    -0.05500
C1347       C  0.91600846  0.27717445  0.79851541    -0.20600
C1348       C  0.91118872  0.26695734  0.79911804     0.25200
C1349       C  0.91777220  0.25777374  0.79791280    -0.18100
C1350       C  0.92897141  0.25885746  0.79664422    -0.08100
C1351       C  0.89932393  0.26635097  0.80102304    -0.18400
C1352       C  0.89436852  0.25800550  0.80596202    -0.23200
C1353       C  0.88256785  0.25754847  0.80848085     0.27200
C1354       C  0.87807718  0.24762789  0.81160839    -0.19900
C1355       C  0.86707654  0.24668074  0.81392885    -0.09600
C1356       C  0.86023233  0.25567414  0.81328259    -0.10100
C1357       C  0.86474742  0.26568347  0.81044679    -0.03100
C1358       C  0.87575397  0.26662937  0.80808877    -0.18200
H1359       H  0.93067831  0.28622392  0.79751786     0.10900
H1360       H  0.91116585  0.28438744  0.79929262     0.11000
H1361       H  0.91433241  0.24976538  0.79802085     0.10700
H1362       H  0.93392356  0.25169831  0.79615954     0.11800
H1363       H  0.89467888  0.27335076  0.79868014     0.11900
H1364       H  0.89917140  0.25111804  0.80838110     0.13800
H1365       H  0.88308561  0.24050691  0.81211862     0.10300
H1366       H  0.86391251  0.23884713  0.81610669     0.12400
H1367       H  0.85973729  0.27279577  0.80988859     0.09000
H1368       H  0.87880441  0.27451780  0.80604374     0.11700
C1369       C  0.65633135  0.25534231  0.67712374    -0.02900
C1370       C  0.65246575  0.26556108  0.68010522    -0.05500
C1371       C  0.64154757  0.26718576  0.68218425    -0.20600
C1372       C  0.63415655  0.25866530  0.68139151     0.25200
C1373       C  0.63793069  0.24847710  0.67809177    -0.18100
C1374       C  0.64891685  0.24683691  0.67601911    -0.08100
C1375       C  0.62262043  0.26096288  0.68377855    -0.18400
C1376       C  0.61514086  0.25341626  0.68612635    -0.23200
C1377       C  0.60359613  0.25600366  0.68832773     0.27200
C1378       C  0.59706805  0.24833072  0.69353012    -0.19900
C1379       C  0.58604521  0.25022677  0.69513969    -0.09600
C1380       C  0.58131280  0.25984448  0.69152980    -0.10100
C1381       C  0.58786693  0.26757256  0.68649481    -0.03100
C1382       C  0.59882335  0.26569054  0.68486839    -0.18200
H1383       H  0.65791654  0.27230786  0.68106775     0.10900
H1384       H  0.63888856  0.27514236  0.68459113     0.11000
H1385       H  0.63246874  0.24177233  0.67704519     0.10700
H1386       H  0.65161923  0.23887819  0.67368614     0.11800
H1387       H  0.62038406  0.26939906  0.68406823     0.11900
H1388       H  0.61754330  0.24503900  0.68675829     0.13800
H1389       H  0.60046951  0.24074695  0.69617825     0.10300
H1390       H  0.58117625  0.24397350  0.69876374     0.12400
H1391       H  0.58443435  0.27503130  0.68354554     0.09000
H1392       H  0.60335611  0.27172128  0.68053358     0.11700
C1393       C  0.65505537  0.23364205  0.81551729    -0.02900
C1394       C  0.65121015  0.22298852  0.81591489    -0.05500
C1395       C  0.64032831  0.22070371  0.81405873    -0.20600
C1396       C  0.63302274  0.22895872  0.81154069     0.25200
C1397       C  0.63679927  0.23966044  0.81132805    -0.18100
C1398       C  0.64768650  0.24196925  0.81332895    -0.08100
C1399       C  0.62151306  0.22606216  0.80960168    -0.18400
C1400       C  0.61470542  0.23190101  0.80341082    -0.23200
C1401       C  0.60310654  0.22910602  0.80155024     0.27200
C1402       C  0.59623484  0.23694299  0.79708220    -0.19900
C1403       C  0.58517690  0.23495666  0.79583462    -0.09600
C1404       C  0.58074248  0.22502295  0.79893598    -0.10100
C1405       C  0.58766686  0.21702323  0.80295549    -0.03100
C1406       C  0.59869141  0.21898474  0.80419126    -0.18200
H1407       H  0.65663588  0.21637481  0.81759928     0.10900
H1408       H  0.63763696  0.21240612  0.81441137     0.11000
H1409       H  0.63136731  0.24628181  0.80974703     0.10700
H1410       H  0.65037220  0.25026307  0.81295752     0.11800
H1411       H  0.61874785  0.21867936  0.81332338     0.11900
H1412       H  0.61767273  0.23920100  0.79963350     0.13800
H1413       H  0.59937222  0.24477778  0.79486914     0.10300
H1414       H  0.58005619  0.24137033  0.79290644     0.12400
H1415       H  0.58449998  0.20924394  0.80532186     0.09000
H1416       H  0.60361096  0.21251732  0.80727954     0.11700
C1417       C  0.79554831  0.24891464  0.81738236    -0.02900
C1418       C  0.79087390  0.23860203  0.81747507    -0.05500
C1419       C  0.77969338  0.23735409  0.81791626    -0.20600
C1420       C  0.77284684  0.24635319  0.81823188     0.25200
C1421       C  0.77751479  0.25670726  0.81828326    -0.18100
C1422       C  0.78873077  0.25795674  0.81783391    -0.08100
C1423       C  0.76098215  0.24442702  0.81867990    -0.18400
C1424       C  0.75338029  0.25189114  0.81646868    -0.23200
C1425       C  0.74157754  0.24954586  0.81658979     0.27200
C1426       C  0.73428055  0.25810319  0.81784338    -0.19900
C1427       C  0.72314626  0.25623570  0.81792799    -0.09600
C1428       C  0.71903182  0.24574854  0.81666277    -0.10100
C1429       C  0.72632774  0.23721491  0.81520861    -0.03100
C1430       C  0.73743631  0.23907708  0.81512828    -0.18200
H1431       H  0.79585612  0.23145430  0.81716261     0.10900
H1432       H  0.77636948  0.22928138  0.81792935     0.11000
H1433       H  0.77261605  0.26387669  0.81881249     0.10700
H1434       H  0.79206396  0.26602087  0.81789852     0.11800
H1435       H  0.75847289  0.23633073  0.82078694     0.11900
H1436       H  0.75576364  0.26006615  0.81454252     0.13800
H1437       H  0.73720991  0.26626609  0.81884836     0.10300
H1438       H  0.71776806  0.26301044  0.81899689     0.12400
H1439       H  0.72345817  0.22905067  0.81407291     0.09000
H1440       H  0.74268926  0.23228937  0.81370766     0.11700
C1441       C  0.68590134  0.24377796  0.78477939    -0.02900
C1442       C  0.68364989  0.25394229  0.78033501    -0.05500
C1443       C  0.68333148  0.25537201  0.76917286    -0.20600
C1444       C  0.68523919  0.24670253  0.76215729     0.25200
C1445       C  0.68754970  0.23651762  0.76662040    -0.18100
C1446       C  0.68782053  0.23508352  0.77779378    -0.08100
C1447       C  0.68511730  0.24881577  0.75033354    -0.18400
C1448       C  0.68524265  0.24106146  0.74271559    -0.23200
C1449       C  0.68551257  0.24324675  0.73092002     0.27200
C1450       C  0.68306788  0.23478352  0.72381127    -0.19900
C1451       C  0.68357896  0.23628647  0.71266673    -0.09600
C1452       C  0.68656899  0.24631461  0.70835589    -0.10100
C1453       C  0.68899982  0.25480920  0.71544016    -0.03100
C1454       C  0.68855201  0.25329232  0.72659007    -0.18200
H1455       H  0.68215091  0.26082668  0.78547900     0.10900
H1456       H  0.68161122  0.26332026  0.76600714     0.11000
H1457       H  0.68935607  0.22963258  0.76162668     0.10700
H1458       H  0.68964523  0.22716141  0.78095712     0.11800
H1459       H  0.68467829  0.25718676  0.74789724     0.11900
H1460       H  0.68487707  0.23267350  0.74508297     0.13800
H1461       H  0.68077865  0.22694460  0.72689340     0.10300
H1462       H  0.68164546  0.22957459  0.70743181     0.12400
H1463       H  0.69142241  0.26261088  0.71237302     0.09000
H1464       H  0.69084170  0.25996343  0.73169457     0.11700
C1465       C  0.86153593  0.24312449  0.67604250    -0.02900
C1466       C  0.86812505  0.25231441  0.67681932    -0.05500
C1467       C  0.87916632  0.25131404  0.67892845    -0.20600
C1468       C  0.88387203  0.24113035  0.68041074     0.25200
C1469       C  0.87735517  0.23191849  0.67914726    -0.18100
C1470       C  0.86633608  0.23291564  0.67704251    -0.08100
C1471       C  0.89557848  0.24043095  0.68308658    -0.18400
C1472       C  0.90007805  0.23180784  0.68794285    -0.23200
C1473       C  0.91182035  0.23067856  0.69003604     0.27200
C1474       C  0.91626235  0.22028785  0.68993930    -0.19900
C1475       C  0.92732183  0.21877851  0.69124497    -0.09600
C1476       C  0.93414850  0.22759625  0.69302341    -0.10100
C1477       C  0.92972379  0.23797955  0.69366178    -0.03100
C1478       C  0.91862819  0.23953395  0.69211970    -0.18200
H1479       H  0.86471372  0.26030370  0.67604744     0.10900
H1480       H  0.88400299  0.25854283  0.67966546     0.11000
H1481       H  0.88068607  0.22389601  0.67972489     0.10700
H1482       H  0.86154328  0.22565505  0.67636134     0.11800
H1483       H  0.90060358  0.24728632  0.68103029     0.11900
H1484       H  0.89509035  0.22495658  0.69005296     0.13800
H1485       H  0.91120227  0.21333033  0.68844751     0.10300
H1486       H  0.93060975  0.21072126  0.69062790     0.12400
H1487       H  0.93490037  0.24489179  0.69492172     0.09000
H1488       H  0.91542654  0.24762909  0.69252045     0.11700
C1489       C  0.79680210  0.24808825  0.67485735    -0.02900
C1490       C  0.79156213  0.25768149  0.67196468    -0.05500
C1491       C  0.78031909  0.25830540  0.67214062    -0.20600
C1492       C  0.77405108  0.24939397  0.67525098     0.25200
C1493       C  0.77934051  0.23980020  0.67818666    -0.18100
C1494       C  0.79055953  0.23915392  0.67791039    -0.08100
C1495       C  0.76212074  0.25062970  0.67563548    -0.18400
C1496       C  0.75510752  0.24242809  0.67704105    -0.23200
C1497       C  0.74322696  0.24390229  0.67746161     0.27200
C1498       C  0.73651116  0.23504701  0.67527592    -0.19900
C1499       C  0.72530085  0.23617491  0.67530250    -0.09600
C1500       C  0.72057067  0.24620066  0.67756411    -0.10100
C1501       C  0.72728492  0.25495540  0.68015305    -0.03100
C1502       C  0.73846390  0.25382002  0.68016565    -0.18200
H1503       H  0.79614323  0.26469881  0.66953660     0.10900
H1504       H  0.77650191  0.26581675  0.66987414     0.11000
H1505       H  0.77496852  0.23278623  0.68089212     0.10700
H1506       H  0.79435841  0.23166515  0.68026862     0.11800
H1507       H  0.75902465  0.25870598  0.67440811     0.11900
H1508       H  0.75800897  0.23421170  0.67743153     0.13800
H1509       H  0.73995524  0.22726534  0.67335143     0.10300
H1510       H  0.72035517  0.22924449  0.67338187     0.12400
H1511       H  0.72390292  0.26274208  0.68215048     0.09000
H1512       H  0.74328763  0.26072834  0.68238716     0.11700
C1513       C  0.82946254  0.24836099  0.70711255    -0.02900
C1514       C  0.83034221  0.25857657  0.71192806    -0.05500
C1515       C  0.83043659  0.25967245  0.72312970    -0.20600
C1516       C  0.82958439  0.25062122  0.72985327     0.25200
C1517       C  0.82876047  0.24035237  0.72505086    -0.18100
C1518       C  0.82867863  0.23925395  0.71380645    -0.08100
C1519       C  0.82992419  0.25235166  0.74174890    -0.18400
C1520       C  0.82664038  0.24505497  0.74910425    -0.23200
C1521       C  0.82693283  0.24686716  0.76099711     0.27200
C1522       C  0.82596135  0.23789274  0.76781091    -0.19900
C1523       C  0.82611170  0.23910095  0.77900704    -0.09600
C1524       C  0.82712918  0.24935840  0.78370875    -0.10100
C1525       C  0.82795403  0.25838592  0.77693242    -0.03100
C1526       C  0.82785369  0.25717600  0.76570782    -0.18200
H1527       H  0.83098491  0.26577358  0.70703899     0.10900
H1528       H  0.83114520  0.26766859  0.72656317     0.11000
H1529       H  0.82837961  0.23311156  0.72986700     0.10700
H1530       H  0.82805697  0.23126090  0.71036037     0.11800
H1531       H  0.83294108  0.26008826  0.74444712     0.11900
H1532       H  0.82363860  0.23730903  0.74640437     0.13800
H1533       H  0.82514162  0.22987324  0.76445577     0.10300
H1534       H  0.82538088  0.23197380  0.78398384     0.12400
H1535       H  0.82870533  0.26640289  0.78030248     0.09000
H1536       H  0.82831221  0.26437471  0.76084501     0.11700
C1537       C  0.26053795  0.63966852  0.67934575    -0.02900
C1538       C  0.25125319  0.63323848  0.67842326    -0.05500
C1539       C  0.25163582  0.62219150  0.68070284    -0.20600
C1540       C  0.26122991  0.61734840  0.68418787     0.25200
C1541       C  0.27055269  0.62373851  0.68503556    -0.18100
C1542       C  0.27021193  0.63476123  0.68260612    -0.08100
C1543       C  0.26138953  0.60554189  0.68632983    -0.18400
C1544       C  0.26793796  0.60091033  0.69366195    -0.23200
C1545       C  0.26863118  0.58903662  0.69537642     0.27200
C1546       C  0.27247693  0.58507125  0.70526734    -0.19900
C1547       C  0.27430824  0.57401971  0.70675055    -0.09600
C1548       C  0.27243877  0.56672493  0.69830496    -0.10100
C1549       C  0.26834163  0.57064829  0.68851131    -0.03100
C1550       C  0.26642428  0.58165523  0.68705460    -0.18200
H1551       H  0.24366509  0.63674725  0.67595786     0.10900
H1552       H  0.24437072  0.61743015  0.67987359     0.11000
H1553       H  0.27815611  0.62021136  0.68740804     0.10700
H1554       H  0.27750624  0.63947178  0.68343241     0.11800
H1555       H  0.25563466  0.60059597  0.68197597     0.11900
H1556       H  0.27291320  0.60601460  0.69874556     0.13800
H1557       H  0.27434827  0.59058326  0.71177626     0.10300
H1558       H  0.27773388  0.57127814  0.71428475     0.12400
H1559       H  0.26695597  0.56520470  0.68182509     0.09000
H1560       H  0.26372951  0.58437783  0.67922976     0.11700
C1561       C  0.27840001  0.92116200  0.79795256    -0.02900
C1562       C  0.27250495  0.91872420  0.80728727    -0.05500
C1563       C  0.26960706  0.90808762  0.80966367    -0.20600
C1564       C  0.27281132  0.89958661  0.80293845     0.25200
C1565       C  0.27842086  0.90205539  0.79337999    -0.18100
C1566       C  0.28113958  0.91276625  0.79088936    -0.08100
C1567       C  0.27022623  0.88829216  0.80620046    -0.18400
C1568       C  0.27675400  0.87987065  0.80407369    -0.23200
C1569       C  0.27477900  0.86861224  0.80790283     0.27200
C1570       C  0.28357569  0.86157812  0.80884186    -0.19900
C1571       C  0.28211668  0.85080592  0.81188360    -0.09600
C1572       C  0.27176678  0.84669281  0.81394335    -0.10100
C1573       C  0.26293736  0.85375828  0.81312191    -0.03100
C1574       C  0.26441479  0.86459185  0.81016313    -0.18200
H1575       H  0.27038258  0.92505532  0.81290274     0.10900
H1576       H  0.26521210  0.90644908  0.81701610     0.11000
H1577       H  0.28079367  0.89572335  0.78788175     0.10700
H1578       H  0.28581467  0.91442852  0.78372153     0.11800
H1579       H  0.26323491  0.88708055  0.81129440     0.11900
H1580       H  0.28426235  0.88137940  0.79985812     0.13800
H1581       H  0.29164326  0.86441148  0.80712057     0.10300
H1582       H  0.28910334  0.84562075  0.81233196     0.12400
H1583       H  0.25483780  0.85085760  0.81452837     0.09000
H1584       H  0.25739560  0.86966775  0.80931406     0.11700
C1585       C  0.22707018  0.56850668  0.79960414    -0.02900
C1586       C  0.21817066  0.57544676  0.79938995    -0.05500
C1587       C  0.21959821  0.58661003  0.79966218    -0.20600
C1588       C  0.22993797  0.59108240  0.80049379     0.25200
C1589       C  0.23891001  0.58414182  0.80026537    -0.18100
C1590       C  0.23747180  0.57292548  0.79976462    -0.08100
C1591       C  0.23092726  0.60297136  0.80179010    -0.18400
C1592       C  0.23878115  0.60772779  0.80762042    -0.23200
C1593       C  0.23932707  0.61955955  0.80981383     0.27200
C1594       C  0.24915980  0.62404081  0.81317578    -0.19900
C1595       C  0.25009824  0.63510139  0.81524390    -0.09600
C1596       C  0.24117150  0.64196606  0.81412669    -0.10100
C1597       C  0.23123377  0.63744046  0.81110166    -0.03100
C1598       C  0.23030510  0.62638594  0.80898513    -0.18200
H1599       H  0.21007750  0.57219627  0.79931596     0.10900
H1600       H  0.21256491  0.59176227  0.79970956     0.11000
H1601       H  0.24700782  0.58733889  0.80059582     0.10700
H1602       H  0.24444266  0.56770150  0.80003051     0.11800
H1603       H  0.22453767  0.60782546  0.79836278     0.11900
H1604       H  0.24509426  0.60275210  0.81105245     0.13800
H1605       H  0.25620463  0.61898305  0.81405114     0.10300
H1606       H  0.25786379  0.63828924  0.81761319     0.12400
H1607       H  0.22417278  0.64246955  0.81022184     0.09000
H1608       H  0.22246897  0.62327477  0.80682447     0.11700
C1609       C  0.24712049  0.67484726  0.78426866    -0.02900
C1610       C  0.23781575  0.67475998  0.77782833    -0.05500
C1611       C  0.23860693  0.67494802  0.76661482    -0.20600
C1612       C  0.24869126  0.67516907  0.76154755     0.25200
C1613       C  0.25803220  0.67530578  0.76798231    -0.18100
C1614       C  0.25723839  0.67510252  0.77922606    -0.08100
C1615       C  0.24900046  0.67557974  0.74958589    -0.18400
C1616       C  0.25757168  0.67268681  0.74360284    -0.23200
C1617       C  0.25759280  0.67286157  0.73161266     0.27200
C1618       C  0.26749063  0.67311901  0.72617139    -0.19900
C1619       C  0.26786227  0.67313353  0.71490384    -0.09600
C1620       C  0.25831370  0.67280415  0.70882531    -0.10100
C1621       C  0.24841567  0.67244367  0.71426731    -0.03100
C1622       C  0.24804352  0.67241718  0.72550826    -0.18200
H1623       H  0.22989291  0.67454008  0.78144595     0.10900
H1624       H  0.23128440  0.67488148  0.76186644     0.11000
H1625       H  0.26595567  0.67579321  0.76443428     0.10700
H1626       H  0.26455575  0.67526708  0.78397074     0.11800
H1627       H  0.24169832  0.67824962  0.74561618     0.11900
H1628       H  0.26492254  0.67010240  0.74754471     0.13800
H1629       H  0.27497093  0.67334931  0.73065916     0.10300
H1630       H  0.27562878  0.67335084  0.71096358     0.12400
H1631       H  0.24091137  0.67206897  0.70983667     0.09000
H1632       H  0.24024846  0.67179508  0.72930490     0.11700
C1633       C  0.24792435  0.70672375  0.81785258    -0.02900
C1634       C  0.23893284  0.71352880  0.81697157    -0.05500
C1635       C  0.24010842  0.72474175  0.81751713    -0.20600
C1636       C  0.25028962  0.72949975  0.81891543     0.25200
C1637       C  0.25930122  0.72266842  0.81989305    -0.18100
C1638       C  0.25812156  0.71144168  0.81932731    -0.08100
C1639       C  0.25099437  0.74154081  0.81949849    -0.18400
C1640       C  0.26022537  0.74724948  0.81856445    -0.23200
C1641       C  0.26100718  0.75930731  0.81878525     0.27200
C1642       C  0.27130389  0.76401431  0.81875032    -0.19900
C1643       C  0.27260565  0.77522064  0.81854491    -0.09600
C1644       C  0.26361997  0.78209150  0.81834084    -0.10100
C1645       C  0.25329581  0.77743677  0.81850136    -0.03100
C1646       C  0.25198207  0.76620386  0.81870791    -0.18200
H1647       H  0.23094964  0.71019578  0.81586031     0.10900
H1648       H  0.23299975  0.72973587  0.81679807     0.11000
H1649       H  0.26727869  0.72585477  0.82126716     0.10700
H1650       H  0.26521670  0.70644793  0.82012938     0.11800
H1651       H  0.24345255  0.74577239  0.82052657     0.11900
H1652       H  0.26771968  0.74296006  0.81738233     0.13800
H1653       H  0.27842560  0.75898440  0.81881101     0.10300
H1654       H  0.28068481  0.77849315  0.81846526     0.12400
H1655       H  0.24618985  0.78248141  0.81836808     0.09000
H1656       H  0.24387516  0.76308329  0.81862769     0.11700
C1657       C  0.25253995  0.84565517  0.67862876    -0.02900
C1658       C  0.26179427  0.85212299  0.67962711    -0.05500
C1659       C  0.26093079  0.86310458  0.68206635    -0.20600
C1660       C  0.25082385  0.86787481  0.68367379     0.25200
C1661       C  0.24153991  0.86148126  0.68235517    -0.18100
C1662       C  0.24239952  0.85050321  0.67990021    -0.08100
C1663       C  0.25025656  0.87959251  0.68626965    -0.18400
C1664       C  0.24190022  0.88411512  0.69151140    -0.23200
C1665       C  0.24061976  0.89593408  0.69313593     0.27200
C1666       C  0.23014953  0.90003510  0.69414760    -0.19900
C1667       C  0.22836462  0.91112803  0.69461869    -0.09600
C1668       C  0.23702840  0.91836015  0.69440102    -0.10100
C1669       C  0.24756489  0.91433017  0.69406388    -0.03100
C1670       C  0.24936726  0.90318338  0.69339971    -0.18200
H1671       H  0.26973917  0.84866217  0.67873031     0.10900
H1672       H  0.26820328  0.86785675  0.68288462     0.11000
H1673       H  0.23358034  0.86491774  0.68309013     0.10700
H1674       H  0.23510454  0.84578526  0.67912577     0.11800
H1675       H  0.25692517  0.88459692  0.68366123     0.11900
H1676       H  0.23530882  0.87903891  0.69418015     0.13800
H1677       H  0.22327913  0.89465522  0.69406936     0.10300
H1678       H  0.22017246  0.91410261  0.69479565     0.12400
H1679       H  0.25434497  0.91981216  0.69378310     0.09000
H1680       H  0.25757015  0.90031526  0.69294827     0.11700
C1681       C  0.26792630  0.81413805  0.78476674    -0.02900
C1682       C  0.27747256  0.81237073  0.77896664    -0.05500
C1683       C  0.27745661  0.81270518  0.76769578    -0.20600
C1684       C  0.26791583  0.81478101  0.76198525     0.25200
C1685       C  0.25841576  0.81675771  0.76783280    -0.18100
C1686       C  0.25841931  0.81635032  0.77906255    -0.08100
C1687       C  0.26824103  0.81509204  0.74999802    -0.18400
C1688       C  0.25940598  0.81384884  0.74379410    -0.23200
C1689       C  0.25925052  0.81409074  0.73180009     0.27200
C1690       C  0.24923308  0.81314949  0.72663506    -0.19900
C1691       C  0.24848956  0.81308892  0.71542268    -0.09600
C1692       C  0.25777537  0.81395553  0.70905173    -0.10100
C1693       C  0.26781886  0.81500914  0.71416395    -0.03100
C1694       C  0.26857169  0.81508338  0.72541368    -0.18200
H1695       H  0.28495849  0.81073238  0.78312766     0.10900
H1696       H  0.28491528  0.81128158  0.76341958     0.11000
H1697       H  0.25096719  0.81885171  0.76385758     0.10700
H1698       H  0.25096357  0.81792890  0.78328303     0.11800
H1699       H  0.27607154  0.81611150  0.74632295     0.11900
H1700       H  0.25173047  0.81234540  0.74765049     0.13800
H1701       H  0.24190705  0.81240850  0.73130260     0.10300
H1702       H  0.24061682  0.81230217  0.71175468     0.12400
H1703       H  0.27512589  0.81572432  0.70947088     0.09000
H1704       H  0.27647974  0.81582831  0.72893931     0.11700
C1705       C  0.25843307  0.78096736  0.67679687    -0.02900
C1706       C  0.26864800  0.77616650  0.67607914    -0.05500
C1707       C  0.26972125  0.76495016  0.67607294    -0.20600
C1708       C  0.26063026  0.75825644  0.67669135     0.25200
C1709       C  0.25039707  0.76306258  0.67750060    -0.18100
C1710       C  0.24932479  0.77428275  0.67751479    -0.08100
C1711       C  0.26221831  0.74636249  0.67690705    -0.18400
C1712       C  0.25448585  0.73921139  0.67421926    -0.23200
C1713       C  0.25579393  0.72727883  0.67465908     0.27200
C1714       C  0.24649358  0.72085862  0.67423339    -0.19900
C1715       C  0.24718696  0.70962853  0.67460054    -0.09600
C1716       C  0.25723567  0.70450194  0.67533609    -0.10100
C1717       C  0.26658142  0.71089089  0.67565543    -0.03100
C1718       C  0.26589010  0.72214867  0.67529857    -0.18200
H1719       H  0.27583882  0.78107234  0.67554642     0.10900
H1720       H  0.27770058  0.76148306  0.67554105     0.11000
H1721       H  0.24319655  0.75825079  0.67837035     0.10700
H1722       H  0.24134384  0.77771723  0.67816537     0.11800
H1723       H  0.27010302  0.74352849  0.67931872     0.11900
H1724       H  0.24667979  0.74216120  0.67166377     0.13800
H1725       H  0.23861722  0.72455371  0.67367516     0.10300
H1726       H  0.23982290  0.70496499  0.67429427     0.12400
H1727       H  0.27445665  0.70719288  0.67614682     0.09000
H1728       H  0.27330335  0.72669837  0.67536164     0.11700
C1729       C  0.22527807  0.76404792  0.43982323    -0.02900
C1730       C  0.22465484  0.75320770  0.43672631    -0.05500
C1731       C  0.23396868  0.74691803  0.43612365    -0.20600
C1732       C  0.24411469  0.75131943  0.43859518     0.25200
C1733       C  0.24469359  0.76225342  0.44164581    -0.18100
C1734       C  0.23537309  0.76853137  0.44219340    -0.08100
C1735       C  0.25369678  0.74407289  0.43828096    -0.18400
C1736       C  0.26399873  0.74741618  0.43927226    -0.23200
C1737       C  0.27345219  0.74001972  0.43941766     0.27200
C1738       C  0.28377269  0.74436338  0.43771149    -0.19900
C1739       C  0.29293037  0.73782446  0.43822733    -0.09600
C1740       C  0.29194532  0.72681853  0.44053007    -0.10100
C1741       C  0.28167804  0.72242502  0.44220125    -0.03100
C1742       C  0.27252177  0.72893465  0.44170321    -0.18200
H1743       H  0.21692378  0.74957529  0.43496797     0.10900
H1744       H  0.23322278  0.73853046  0.43382147     0.11000
H1745       H  0.25221565  0.76603037  0.44382508     0.10700
H1746       H  0.23601048  0.77690607  0.44455888     0.11800
H1747       H  0.25208479  0.73558284  0.43700481     0.11900
H1748       H  0.26576027  0.75594664  0.43978729     0.13800
H1749       H  0.28476224  0.75287530  0.43605411     0.10300
H1750       H  0.30080638  0.74136849  0.43705253     0.12400
H1751       H  0.28079026  0.71394261  0.44404617     0.09000
H1752       H  0.26483009  0.72525397  0.44341114     0.11700
C1753       C  0.27445342  0.69476827  0.53017937    -0.02900
C1754       C  0.26793995  0.69038335  0.52204574    -0.05500
C1755       C  0.26900050  0.69380612  0.51137286    -0.20600
C1756       C  0.27662968  0.70167028  0.50855540     0.25200
C1757       C  0.28280606  0.70645084  0.51681540    -0.18100
C1758       C  0.28174593  0.70298141  0.52751993    -0.08100
C1759       C  0.27884754  0.70349197  0.49688650    -0.18400
C1760       C  0.28459864  0.71180568  0.49290597    -0.23200
C1761       C  0.28827377  0.71224809  0.48148458     0.27200
C1762       C  0.29043167  0.72227308  0.47668011    -0.19900
C1763       C  0.29490255  0.72285535  0.46632685    -0.09600
C1764       C  0.29747651  0.71340456  0.46067086    -0.10100
C1765       C  0.29523518  0.70339060  0.46540845    -0.03100
C1766       C  0.29063291  0.70279903  0.47566493    -0.18200
H1767       H  0.26238504  0.68390538  0.52388255     0.10900
H1768       H  0.26418621  0.68992000  0.50521186     0.11000
H1769       H  0.28897274  0.71232559  0.51500221     0.10700
H1770       H  0.28718411  0.70615801  0.53353765     0.11800
H1771       H  0.27584253  0.69743491  0.49132517     0.11900
H1772       H  0.28684478  0.71845019  0.49812651     0.13800
H1773       H  0.28884858  0.72966544  0.48103777     0.10300
H1774       H  0.29678621  0.73067227  0.46294130     0.12400
H1775       H  0.29729244  0.69599793  0.46125293     0.09000
H1776       H  0.28942248  0.69492327  0.47919828     0.11700
C1777       C  0.26974570  0.68547511  0.56926265    -0.02900
C1778       C  0.27280958  0.69416337  0.57583588    -0.05500
C1779       C  0.27133391  0.69366736  0.58703026    -0.20600
C1780       C  0.26667811  0.68454103  0.59187727     0.25200
C1781       C  0.26337394  0.67596643  0.58523836    -0.18100
C1782       C  0.26489275  0.67644554  0.57409153    -0.08100
C1783       C  0.26622833  0.68382728  0.60386669    -0.18400
C1784       C  0.25935674  0.67735978  0.60927285    -0.23200
C1785       C  0.25951362  0.67608895  0.62121017     0.27200
C1786       C  0.24999697  0.67321804  0.62659119    -0.19900
C1787       C  0.24992682  0.67172852  0.63778059    -0.09600
C1788       C  0.25943875  0.67287582  0.64383291    -0.10100
C1789       C  0.26901238  0.67552922  0.63840354    -0.03100
C1790       C  0.26905331  0.67713221  0.62723693    -0.18200
H1791       H  0.27680054  0.70111569  0.57241428     0.10900
H1792       H  0.27406421  0.70034137  0.59195475     0.11000
H1793       H  0.26002630  0.66866983  0.58862641     0.10700
H1794       H  0.26247414  0.66959925  0.56924625     0.11800
H1795       H  0.27171145  0.68893381  0.60838752     0.11900
H1796       H  0.25315443  0.67303901  0.60487550     0.13800
H1797       H  0.24256220  0.67223964  0.62213276     0.10300
H1798       H  0.24240415  0.66971016  0.64169195     0.12400
H1799       H  0.27648064  0.67648768  0.64280138     0.09000
H1800       H  0.27660950  0.67900741  0.62333464     0.11700
C1801       C  0.23352788  0.78402813  0.53277829    -0.02900
C1802       C  0.22550747  0.77655897  0.53005329    -0.05500
C1803       C  0.22468970  0.77270461  0.51947495    -0.20600
C1804       C  0.23174376  0.77643471  0.51145400     0.25200
C1805       C  0.24019803  0.78339207  0.51441461    -0.18100
C1806       C  0.24101488  0.78720969  0.52497195    -0.08100
C1807       C  0.22959030  0.77361745  0.50000153    -0.18400
C1808       C  0.23160949  0.78059205  0.49192475    -0.23200
C1809       C  0.22762017  0.77912701  0.48073787     0.27200
C1810       C  0.22520429  0.78836596  0.47468946    -0.19900
C1811       C  0.22069240  0.78747364  0.46442823    -0.09600
C1812       C  0.21877129  0.77731748  0.45987185    -0.10100
C1813       C  0.22159573  0.76803152  0.46568303    -0.03100
C1814       C  0.22595852  0.76891630  0.47607038    -0.18200
H1815       H  0.21954388  0.77416493  0.53593772     0.10900
H1816       H  0.21815247  0.76730001  0.51741638     0.11000
H1817       H  0.24599600  0.78615019  0.50852976     0.10700
H1818       H  0.24724289  0.79299537  0.52696258     0.11800
H1819       H  0.22501098  0.76634079  0.49836842     0.11900
H1820       H  0.23519656  0.78834932  0.49381339     0.13800
H1821       H  0.22646445  0.79631915  0.47806855     0.10300
H1822       H  0.21855066  0.79473233  0.46008393     0.12400
H1823       H  0.22007862  0.76011159  0.46234305     0.09000
H1824       H  0.22795046  0.76163714  0.48043183     0.11700
C1825       C  0.24197246  0.77582387  0.55440924    -0.02900
C1826       C  0.25309197  0.77489893  0.55597066    -0.05500
C1827       C  0.25787328  0.76471444  0.55675712    -0.20600
C1828       C  0.25162432  0.75526704  0.55604558     0.25200
C1829       C  0.24037445  0.75632862  0.55483701    -0.18100
C1830       C  0.23565015  0.76650455  0.55398132    -0.08100
C1831       C  0.25723198  0.74460685  0.55636883    -0.18400
C1832       C  0.25232034  0.73501747  0.55478544    -0.23200
C1833       C  0.25794205  0.72441373  0.55444623     0.27200
C1834       C  0.25168864  0.71499301  0.55521839    -0.19900
C1835       C  0.25639716  0.70482466  0.55416836    -0.09600
C1836       C  0.26744714  0.70386944  0.55225022    -0.10100
C1837       C  0.27380623  0.71318522  0.55174336    -0.03100
C1838       C  0.26911589  0.72338904  0.55276415    -0.18200
H1839       H  0.25806935  0.78205782  0.55629149     0.10900
H1840       H  0.26652287  0.76421698  0.55773270     0.11000
H1841       H  0.23508617  0.74944417  0.55445621     0.10700
H1842       H  0.22702695  0.76714012  0.55293463     0.11800
H1843       H  0.26583157  0.74477955  0.55784107     0.11900
H1844       H  0.24370336  0.73471030  0.55359261     0.13800
H1845       H  0.24308064  0.71550480  0.55648864     0.10300
H1846       H  0.25140586  0.69768206  0.55460880     0.12400
H1847       H  0.28239471  0.71254219  0.55050440     0.09000
H1848       H  0.27425064  0.73036760  0.55192971     0.11700
C1849       C  0.24008544  0.79469884  0.57104263    -0.02900
C1850       C  0.23760223  0.78612961  0.57798492    -0.05500
C1851       C  0.23953828  0.78704345  0.58907576    -0.20600
C1852       C  0.24405831  0.79648899  0.59342416     0.25200
C1853       C  0.24677774  0.80494743  0.58638519    -0.18100
C1854       C  0.24482805  0.80403342  0.57534717    -0.08100
C1855       C  0.24501190  0.79759775  0.60534247    -0.18400
C1856       C  0.25155351  0.80480148  0.61020362    -0.23200
C1857       C  0.25192178  0.80654518  0.62205778     0.27200
C1858       C  0.26118833  0.81116274  0.62661900    -0.19900
C1859       C  0.26177025  0.81321246  0.63768606    -0.09600
C1860       C  0.25300183  0.81086973  0.64442454    -0.10100
C1861       C  0.24364079  0.80642365  0.63984043    -0.03100
C1862       C  0.24309996  0.80427100  0.62878651    -0.18200
H1863       H  0.23369220  0.77894876  0.57494594     0.10900
H1864       H  0.23725137  0.78045139  0.59431426     0.11000
H1865       H  0.24997417  0.81248753  0.58935618     0.10700
H1866       H  0.24677203  0.81079116  0.57018111     0.11800
H1867       H  0.24019673  0.79219733  0.61024263     0.11900
H1868       H  0.25712776  0.80948301  0.60538246     0.13800
H1869       H  0.26804733  0.81311448  0.62160549     0.10300
H1870       H  0.26909625  0.81663419  0.64096599     0.12400
H1871       H  0.23675952  0.80447939  0.64482146     0.09000
H1872       H  0.23569373  0.80101796  0.62554506     0.11700
C1873       C  0.32831317  0.73252974  0.35039474    -0.02900
C1874       C  0.32908993  0.72220367  0.35499257    -0.05500
C1875       C  0.32755194  0.72070372  0.36606850    -0.20600
C1876       C  0.32489511  0.72941785  0.37276113     0.25200
C1877       C  0.32411999  0.73975991  0.36822256    -0.18100
C1878       C  0.32590412  0.74131160  0.35716948    -0.08100
C1879       C  0.32343165  0.72754412  0.38449847    -0.18400
C1880       C  0.31557348  0.73222619  0.39033708    -0.23200
C1881       C  0.31393516  0.72964360  0.40192691     0.27200
C1882       C  0.30350661  0.72791022  0.40594114    -0.19900
C1883       C  0.30192419  0.72469778  0.41667320    -0.09600
C1884       C  0.31074185  0.72348570  0.42368108    -0.10100
C1885       C  0.32111790  0.72576759  0.41973863    -0.03100
C1886       C  0.32270706  0.72874287  0.40899523    -0.18200
H1887       H  0.33092014  0.71526687  0.35003016     0.10900
H1888       H  0.32827061  0.71267082  0.36940325     0.11000
H1889       H  0.32229166  0.74665482  0.37324314     0.10700
H1890       H  0.32522318  0.74937020  0.35389871     0.11800
H1891       H  0.32849095  0.72148868  0.38828446     0.11900
H1892       H  0.30973920  0.73737970  0.38634759     0.13800
H1893       H  0.29661683  0.72858328  0.40063431     0.10300
H1894       H  0.29386234  0.72273325  0.41930437     0.12400
H1895       H  0.32808095  0.72502088  0.42493610     0.09000
H1896       H  0.33081526  0.73027756  0.40618915     0.11700
C1897       C  0.19017110  0.75238002  0.34989584    -0.02900
C1898       C  0.18734088  0.74371330  0.35661547    -0.05500
C1899       C  0.18908196  0.74430187  0.36775851    -0.20600
C1900       C  0.19393398  0.75343661  0.37236597     0.25200
C1901       C  0.19656904  0.76218154  0.36566322    -0.18100
C1902       C  0.19467032  0.76166794  0.35457223    -0.08100
C1903       C  0.19566738  0.75388233  0.38421951    -0.18400
C1904       C  0.20369531  0.75962042  0.38879813    -0.23200
C1905       C  0.20491996  0.76120812  0.40063381     0.27200
C1906       C  0.21486774  0.76476320  0.40473224    -0.19900
C1907       C  0.21597156  0.76761037  0.41560476    -0.09600
C1908       C  0.20710920  0.76700841  0.42257550    -0.10100
C1909       C  0.19724961  0.76318545  0.41855993    -0.03100
C1910       C  0.19614980  0.76029855  0.40773375    -0.18200
H1911       H  0.18382930  0.73646166  0.35325316     0.10900
H1912       H  0.18681280  0.73753074  0.37277056     0.11000
H1913       H  0.19997913  0.76949739  0.36897425     0.10700
H1914       H  0.19696001  0.76847259  0.34961922     0.11800
H1915       H  0.19029243  0.74916499  0.38923225     0.11900
H1916       H  0.20964792  0.76342533  0.38365062     0.13800
H1917       H  0.22172438  0.76565924  0.39942651     0.10300
H1918       H  0.22359255  0.77078519  0.41841148     0.12400
H1919       H  0.19026653  0.76274816  0.42375710     0.09000
H1920       H  0.18827842  0.75788612  0.40489908     0.11700
C1921       C  0.22198534  0.74887897  0.31933805    -0.02900
C1922       C  0.22797240  0.75848094  0.31999735    -0.05500
C1923       C  0.23920061  0.75822094  0.32068140    -0.20600
C1924       C  0.24475568  0.74838594  0.32058921     0.25200
C1925       C  0.23876959  0.73874336  0.32012233    -0.18100
C1926       C  0.22751252  0.73900098  0.31949349    -0.08100
C1927       C  0.25673569  0.74856403  0.32122308    -0.18400
C1928       C  0.26300941  0.74057986  0.31738057    -0.23200
C1929       C  0.27502556  0.74054459  0.31769915     0.27200
C1930       C  0.28033646  0.73089826  0.31516023    -0.19900
C1931       C  0.29155753  0.73029720  0.31526013    -0.09600
C1932       C  0.29783100  0.73937089  0.31784008    -0.10100
C1933       C  0.29257458  0.74910202  0.32025241    -0.03100
C1934       C  0.28129798  0.74970189  0.32019115    -0.18200
H1935       H  0.22398381  0.76623491  0.32000055     0.10900
H1936       H  0.24358060  0.76575948  0.32115477     0.11000
H1937       H  0.24269878  0.73097854  0.32041415     0.10700
H1938       H  0.22314232  0.73145567  0.31912218     0.11800
H1939       H  0.26038237  0.75570025  0.32468523     0.11900
H1940       H  0.25918848  0.73361676  0.31372160     0.13800
H1941       H  0.27577330  0.72373458  0.31312947     0.10300
H1942       H  0.29531650  0.72268144  0.31328307     0.12400
H1943       H  0.29717314  0.75625565  0.32221917     0.09000
H1944       H  0.27763703  0.75738406  0.32197479     0.11700
C1945       C  0.33075476  0.74120086  0.28592661    -0.02900
C1946       C  0.32617161  0.73357671  0.27891816    -0.05500
C1947       C  0.32617546  0.73528584  0.26776281    -0.20600
C1948       C  0.33095747  0.74459673  0.26335169     0.25200
C1949       C  0.33552715  0.75219202  0.27039553    -0.18100
C1950       C  0.33541646  0.75053574  0.28154281    -0.08100
C1951       C  0.33105213  0.74689469  0.25155260    -0.18400
C1952       C  0.32976628  0.73928620  0.24389204    -0.23200
C1953       C  0.32997431  0.74151951  0.23208818     0.27200
C1954       C  0.33187133  0.73290852  0.22500513    -0.19900
C1955       C  0.33185720  0.73448695  0.21385354    -0.09600
C1956       C  0.32986190  0.74473403  0.20947163    -0.10100
C1957       C  0.32795369  0.75338486  0.21654017    -0.03100
C1958       C  0.32796909  0.75180307  0.22771822    -0.18200
H1959       H  0.32238390  0.72637904  0.28207912     0.10900
H1960       H  0.32223901  0.72938644  0.26270360     0.11000
H1961       H  0.33921739  0.75945412  0.26725850     0.10700
H1962       H  0.33904644  0.75654133  0.28673458     0.11800
H1963       H  0.33273993  0.75512863  0.24915531     0.11900
H1964       H  0.32900258  0.73091458  0.24627748     0.13800
H1965       H  0.33337278  0.72489400  0.22811624     0.10300
H1966       H  0.33334378  0.72763563  0.20866204     0.12400
H1967       H  0.32630630  0.76136817  0.21343561     0.09000
H1968       H  0.32616307  0.75861107  0.23283958     0.11700
C1969       C  0.18900599  0.73527744  0.20971056    -0.02900
C1970       C  0.19137256  0.72608241  0.21587415    -0.05500
C1971       C  0.19163769  0.72664375  0.22713717    -0.20600
C1972       C  0.18960294  0.73639981  0.23250624     0.25200
C1973       C  0.18703287  0.74555855  0.22633528    -0.18100
C1974       C  0.18679327  0.74500383  0.21508519    -0.08100
C1975       C  0.18984408  0.73658208  0.24451039    -0.18400
C1976       C  0.19117534  0.74564610  0.25038503    -0.23200
C1977       C  0.19117435  0.74596665  0.26239658     0.27200
C1978       C  0.19518685  0.75520046  0.26759535    -0.19900
C1979       C  0.19496728  0.75606502  0.27883476    -0.09600
C1980       C  0.19077671  0.74766502  0.28514706    -0.10100
C1981       C  0.18679657  0.73840686  0.27998670    -0.03100
C1982       C  0.18689401  0.73759053  0.26874679    -0.18200
H1983       H  0.19307092  0.71845206  0.21200000     0.10900
H1984       H  0.19351180  0.71943213  0.23167654     0.11000
H1985       H  0.18501007  0.75313904  0.23011534     0.10700
H1986       H  0.18479744  0.75221056  0.21059636     0.11800
H1987       H  0.18930244  0.72886233  0.24855587     0.11900
H1988       H  0.19266020  0.75321165  0.24627177     0.13800
H1989       H  0.19847420  0.76180718  0.26293518     0.10300
H1990       H  0.19812298  0.76328749  0.28258774     0.12400
H1991       H  0.18337915  0.73186582  0.28464189     0.09000
H1992       H  0.18338853  0.73048292  0.26513806     0.11700
C1993       C  0.29689992  0.74298063  0.17742491    -0.02900
C1994       C  0.29280415  0.73322097  0.17340413    -0.05500
C1995       C  0.28171064  0.73135003  0.17313900    -0.20600
C1996       C  0.27445795  0.73916605  0.17688768     0.25200
C1997       C  0.27858871  0.74884483  0.18115781    -0.18100
C1998       C  0.28967811  0.75075157  0.18133174    -0.08100
C1999       C  0.26272420  0.73675526  0.17647300    -0.18400
C2000       C  0.25500639  0.74437922  0.17696147    -0.23200
C2001       C  0.24321903  0.74213574  0.17667172     0.27200
C2002       C  0.23613021  0.75088961  0.17563143    -0.19900
C2003       C  0.22498878  0.74931441  0.17562689    -0.09600
C2004       C  0.22065083  0.73891467  0.17666509    -0.10100
C2005       C  0.22771238  0.73012985  0.17765971    -0.03100
C2006       C  0.23885371  0.73170397  0.17771990    -0.18200
H2007       H  0.29816593  0.72707317  0.17033343     0.10900
H2008       H  0.27877771  0.72378467  0.16990768     0.11000
H2009       H  0.27336161  0.75492578  0.18452691     0.10700
H2010       H  0.29260590  0.75828669  0.18462997     0.11800
H2011       H  0.26051063  0.72839347  0.17530822     0.11900
H2012       H  0.25735462  0.75278814  0.17731762     0.13800
H2013       H  0.23922395  0.75901765  0.17486103     0.10300
H2014       H  0.21977823  0.75625958  0.17484262     0.12400
H2015       H  0.22463183  0.72201080  0.17852971     0.09000
H2016       H  0.24389521  0.72470486  0.17878437     0.11700
C2017       C  0.18931417  0.73367465  0.14469215    -0.02900
C2018       C  0.18585688  0.74262550  0.13867559    -0.05500
C2019       C  0.18715737  0.74287919  0.12748147    -0.20600
C2020       C  0.19214232  0.73430867  0.12205882     0.25200
C2021       C  0.19539348  0.72523550  0.12803521    -0.18100
C2022       C  0.19397000  0.72492121  0.13922388    -0.08100
C2023       C  0.19345040  0.73493163  0.11015078    -0.18400
C2024       C  0.20141513  0.72985899  0.10477720    -0.23200
C2025       C  0.20260045  0.72975748  0.09279991     0.27200
C2026       C  0.21200031  0.72530792  0.08832341    -0.19900
C2027       C  0.21296351  0.72380609  0.07718014    -0.09600
C2028       C  0.20452214  0.72672643  0.07026651    -0.10100
C2029       C  0.19533259  0.73161526  0.07465015    -0.03100
C2030       C  0.19436051  0.73313566  0.08576765    -0.18200
H2031       H  0.18218388  0.74947630  0.14262767     0.10900
H2032       H  0.18443031  0.74988861  0.12305979     0.11000
H2033       H  0.19892870  0.71831619  0.12409420     0.10700
H2034       H  0.19669557  0.71789627  0.14361549     0.11800
H2035       H  0.18787217  0.74007555  0.10585198     0.11900
H2036       H  0.20742898  0.72548955  0.10937586     0.13800
H2037       H  0.21846890  0.72259087  0.09350654     0.10300
H2038       H  0.22003304  0.71978822  0.07405705     0.12400
H2039       H  0.18867825  0.73386610  0.06947727     0.09000
H2040       H  0.18691262  0.73647401  0.08873988     0.11700
C2041       C  0.29366378  0.75738485  0.05365252    -0.02900
C2042       C  0.29308492  0.74670210  0.05731702    -0.05500
C2043       C  0.28314921  0.74148037  0.05822441    -0.20600
C2044       C  0.27355957  0.74678783  0.05544483     0.25200
C2045       C  0.27415402  0.75752296  0.05179253    -0.18100
C2046       C  0.28408849  0.76276955  0.05100919    -0.08100
C2047       C  0.26326472  0.74062206  0.05584053    -0.18400
C2048       C  0.25343401  0.74521870  0.05563753    -0.23200
C2049       C  0.24316515  0.73902071  0.05522767     0.27200
C2050       C  0.23354963  0.74431825  0.05791166    -0.19900
C2051       C  0.22364141  0.73904699  0.05700236    -0.09600
C2052       C  0.22312155  0.72836455  0.05334191    -0.10100
C2053       C  0.23271160  0.72297854  0.05079312    -0.03100
C2054       C  0.24263103  0.72825335  0.05164457    -0.18200
H2055       H  0.30035441  0.74231570  0.05926579     0.10900
H2056       H  0.28297018  0.73319726  0.06096784     0.11000
H2057       H  0.26705471  0.76187096  0.04927834     0.10700
H2058       H  0.28429752  0.77104601  0.04827846     0.11800
H2059       H  0.26390365  0.73193308  0.05647481     0.11900
H2060       H  0.25275739  0.75391992  0.05596103     0.13800
H2061       H  0.23369009  0.75262309  0.06060212     0.10300
H2062       H  0.21633520  0.74338115  0.05892082     0.12400
H2063       H  0.23251011  0.71470296  0.04804222     0.09000
H2064       H  0.24976683  0.72392897  0.04920491     0.11700
C2065       C  0.32527235  0.75234074  0.14502534    -0.02900
C2066       C  0.32119358  0.76205649  0.14088467    -0.05500
C2067       C  0.31818501  0.76289535  0.13005193    -0.20600
C2068       C  0.31923652  0.75409973  0.12300795     0.25200
C2069       C  0.32343943  0.74437934  0.12710215    -0.18100
C2070       C  0.32642146  0.74352859  0.13797677    -0.08100
C2071       C  0.31565546  0.75545839  0.11158784    -0.18400
C2072       C  0.31861935  0.74896415  0.10339654    -0.23200
C2073       C  0.31603244  0.75138358  0.09192289     0.27200
C2074       C  0.32352788  0.74850874  0.08399348    -0.19900
C2075       C  0.32201767  0.75161357  0.07328249    -0.09600
C2076       C  0.31283927  0.75743463  0.07018697    -0.10100
C2077       C  0.30496795  0.75974925  0.07795675    -0.03100
C2078       C  0.30655281  0.75676374  0.08875542    -0.18200
H2079       H  0.32008275  0.76898007  0.14607542     0.10900
H2080       H  0.31495573  0.77047169  0.12717282     0.11000
H2081       H  0.32419601  0.73731548  0.12206643     0.10700
H2082       H  0.32941903  0.73588339  0.14091273     0.11800
H2083       H  0.31095517  0.76259718  0.10974655     0.11900
H2084       H  0.32407937  0.74232783  0.10491532     0.13800
H2085       H  0.33083647  0.74428558  0.08617734     0.10300
H2086       H  0.32821243  0.74976015  0.06743713     0.12400
H2087       H  0.29787383  0.76432249  0.07578841     0.09000
H2088       H  0.30046500  0.75884403  0.09462370     0.11700
C2089       C  0.23589349  0.69931151  0.96264378    -0.02900
C2090       C  0.23104827  0.70946372  0.96372621    -0.05500
C2091       C  0.22997589  0.71418800  0.97393634    -0.20600
C2092       C  0.23369570  0.70881609  0.98319468     0.25200
C2093       C  0.23932475  0.69905485  0.98190403    -0.18100
C2094       C  0.24024873  0.69429278  0.97176294    -0.08100
C2095       C  0.23096132  0.71317123  0.99406210    -0.18400
C2096       C  0.22986212  0.70669328  0.00272714    -0.23200
C2097       C  0.22546153  0.71005041  0.01335904     0.27200
C2098       C  0.22155477  0.70191879  0.02017922    -0.19900
C2099       C  0.21667671  0.70447652  0.02995090    -0.09600
C2100       C  0.21578062  0.71521994  0.03327126    -0.10100
C2101       C  0.22005457  0.72340923  0.02674505    -0.03100
C2102       C  0.22484875  0.72085798  0.01682068    -0.18200
H2103       H  0.22757748  0.71344591  0.95678310     0.10900
H2104       H  0.22574126  0.72177590  0.97466275     0.11000
H2105       H  0.24280520  0.69489819  0.98872017     0.10700
H2106       H  0.24412763  0.68651044  0.97106340     0.11800
H2107       H  0.22869177  0.72158817  0.99462052     0.11900
H2108       H  0.23127167  0.69812591  0.00176773     0.13800
H2109       H  0.22197939  0.69353272  0.01779231     0.10300
H2110       H  0.21342338  0.69804582  0.03487525     0.12400
H2111       H  0.21937308  0.73176453  0.02916683     0.09000
H2112       H  0.22797273  0.72733868  0.01191245     0.11700
C2113       C  0.23719231  0.68860748  0.92370520    -0.02900
C2114       C  0.24719738  0.69129720  0.91921715    -0.05500
C2115       C  0.24904726  0.68983807  0.90817067    -0.20600
C2116       C  0.24097037  0.68559929  0.90143454     0.25200
C2117       C  0.23084224  0.68325280  0.90595468    -0.18100
C2118       C  0.22904007  0.68464848  0.91695447    -0.08100
C2119       C  0.24331327  0.68396226  0.88975948    -0.18400
C2120       C  0.23727398  0.67768099  0.88324916    -0.23200
C2121       C  0.23907259  0.67660535  0.87147946     0.27200
C2122       C  0.23016112  0.67452134  0.86485372    -0.19900
C2123       C  0.23136583  0.67358567  0.85371392    -0.09600
C2124       C  0.24157199  0.67450329  0.84894455    -0.10100
C2125       C  0.25057081  0.67628485  0.85560119    -0.03100
C2126       C  0.24933740  0.67737234  0.86676954    -0.18200
H2127       H  0.25368076  0.69418773  0.92428964     0.10900
H2128       H  0.25688535  0.69181941  0.90491492     0.11000
H2129       H  0.22419985  0.68041403  0.90110604     0.10700
H2130       H  0.22122793  0.68257974  0.92022686     0.11800
H2131       H  0.25021722  0.68816492  0.88643165     0.11900
H2132       H  0.23037083  0.67342545  0.88645598     0.13800
H2133       H  0.22218447  0.67380718  0.86829940     0.10300
H2134       H  0.22427669  0.67217440  0.84882958     0.12400
H2135       H  0.25854511  0.67701258  0.85216333     0.09000
H2136       H  0.25641720  0.67868446  0.87167889     0.11700
C2137       C  0.28269204  0.78641548  0.96191306    -0.02900
C2138       C  0.27498903  0.77942249  0.96638250    -0.05500
C2139       C  0.27645712  0.77517142  0.97676591    -0.20600
C2140       C  0.28552103  0.77802074  0.98292609     0.25200
C2141       C  0.29338712  0.78469929  0.97826100    -0.18100
C2142       C  0.29196035  0.78886504  0.96791579    -0.08100
C2143       C  0.28670737  0.77403152  0.99419088    -0.18400
C2144       C  0.29124890  0.78020242  0.00190654    -0.23200
C2145       C  0.29349699  0.77680415  0.01320485     0.27200
C2146       C  0.29641433  0.78484818  0.02061048    -0.19900
C2147       C  0.30018773  0.78216482  0.03084747    -0.09600
C2148       C  0.30105551  0.77136293  0.03400338    -0.10100
C2149       C  0.29760873  0.76325461  0.02689176    -0.03100
C2150       C  0.29387892  0.76594004  0.01653299    -0.18200
H2151       H  0.26766300  0.77755963  0.96203683     0.10900
H2152       H  0.27032518  0.76997224  0.98014348     0.11000
H2153       H  0.30065636  0.78675757  0.98261784     0.10700
H2154       H  0.29806601  0.79416330  0.96464046     0.11800
H2155       H  0.28344821  0.76616802  0.99617010     0.11900
H2156       H  0.29351265  0.78840172  0.99982309     0.13800
H2157       H  0.29620674  0.79326723  0.01831112     0.10300
H2158       H  0.30286871  0.78853849  0.03618377     0.12400
H2159       H  0.29840329  0.75485358  0.02911208     0.09000
H2160       H  0.29186467  0.75948843  0.01103120     0.11700
C2161       C  0.27379533  0.77683475  0.94048737    -0.02900
C2162       C  0.28106722  0.76858691  0.94301887    -0.05500
C2163       C  0.27797786  0.75778990  0.94220965    -0.20600
C2164       C  0.26755918  0.75496623  0.93880182     0.25200
C2165       C  0.26035201  0.76328595  0.93598081    -0.18100
C2166       C  0.26348079  0.77410730  0.93678547    -0.08100
C2167       C  0.26444549  0.74334756  0.93909801    -0.18400
C2168       C  0.25522851  0.73928128  0.93500402    -0.23200
C2169       C  0.25171046  0.72787158  0.93647566     0.27200
C2170       C  0.24335286  0.72384390  0.92997108    -0.19900
C2171       C  0.23910856  0.71353986  0.93173297    -0.09600
C2172       C  0.24315353  0.70702523  0.94003380    -0.10100
C2173       C  0.25170632  0.71088610  0.94633900    -0.03100
C2174       C  0.25588229  0.72121084  0.94466998    -0.18200
H2175       H  0.28908634  0.77054286  0.94583267     0.10900
H2176       H  0.28370378  0.75161255  0.94446786     0.11000
H2177       H  0.25218956  0.76159024  0.93350724     0.10700
H2178       H  0.25773951  0.78038178  0.93488331     0.11800
H2179       H  0.27009309  0.73794184  0.94297612     0.11900
H2180       H  0.24992165  0.74444117  0.93038831     0.13800
H2181       H  0.23992241  0.72878854  0.92365480     0.10300
H2182       H  0.23243820  0.71078121  0.92683673     0.12400
H2183       H  0.25499958  0.70596734  0.95274049     0.09000
H2184       H  0.26209851  0.72399427  0.95009111     0.11700
C2185       C  0.27269117  0.79587442  0.92368082    -0.02900
C2186       C  0.26741306  0.80481446  0.91917220    -0.05500
C2187       C  0.26608347  0.80576620  0.90804442    -0.20600
C2188       C  0.26990266  0.79769279  0.90106503     0.25200
C2189       C  0.27470106  0.78847994  0.90561498    -0.18100
C2190       C  0.27611973  0.78758104  0.91679761    -0.08100
C2191       C  0.26996407  0.79902377  0.88909676    -0.18400
C2192       C  0.26444085  0.80673333  0.88375436    -0.23200
C2193       C  0.26544698  0.80872565  0.87195892     0.27200
C2194       C  0.25707500  0.81408729  0.86656134    -0.19900
C2195       C  0.25775283  0.81621617  0.85550761    -0.09600
C2196       C  0.26693229  0.81321442  0.84963105    -0.10100
C2197       C  0.27546205  0.80815692  0.85509048    -0.03100
C2198       C  0.27473413  0.80591960  0.86611652    -0.18200
H2199       H  0.26468993  0.81135372  0.92426393     0.10900
H2200       H  0.26252219  0.81310608  0.90503671     0.11000
H2201       H  0.27777728  0.78214643  0.90046442     0.10700
H2202       H  0.28045566  0.78071383  0.91994712     0.11800
H2203       H  0.27491692  0.79345338  0.88454089     0.11900
H2204       H  0.25874463  0.81174266  0.88805246     0.13800
H2205       H  0.24990506  0.81650220  0.87088725     0.10300
H2206       H  0.25104968  0.82013912  0.85154365     0.12400
H2207       H  0.28263160  0.80570771  0.85078851     0.09000
H2208       H  0.28152300  0.80212247  0.87002788     0.11700
C2209       C  0.15717701  0.75149769  0.31462659    -0.02900
C2210       C  0.15115405  0.74206428  0.31280751    -0.05500
C2211       C  0.14011906  0.74262454  0.31053728    -0.20600
C2212       C  0.13484606  0.75260846  0.30994228     0.25200
C2213       C  0.14079750  0.76203188  0.31212371    -0.18100
C2214       C  0.15182799  0.76147489  0.31438252    -0.08100
C2215       C  0.12311456  0.75286969  0.30734121    -0.18400
C2216       C  0.11824721  0.76145623  0.30279063    -0.23200
C2217       C  0.10643988  0.76231717  0.30077451     0.27200
C2218       C  0.10201488  0.77266744  0.29976030    -0.19900
C2219       C  0.09092279  0.77408095  0.29872637    -0.09600
C2220       C  0.08398015  0.76517207  0.29843476    -0.10100
C2221       C  0.08835340  0.75476179  0.29881774    -0.03100
C2222       C  0.09951232  0.75332414  0.30000544    -0.18200
H2223       H  0.15500454  0.73424243  0.31293043     0.10900
H2224       H  0.13572131  0.73523165  0.30904060     0.11000
H2225       H  0.13697677  0.76985632  0.31220142     0.10700
H2226       H  0.15618400  0.76889047  0.31587395     0.11800
H2227       H  0.11844839  0.74572202  0.30920437     0.04700
H2228       H  0.12305416  0.76848689  0.30082096     0.13800
H2229       H  0.10712279  0.77973365  0.30021136     0.10300
H2230       H  0.08769790  0.78218737  0.29851808     0.12400
H2231       H  0.08310829  0.74778769  0.29871588     0.09000
H2232       H  0.10261808  0.74520236  0.30044385     0.11700
C2233       C  0.06568735  0.72764157  0.21343426    -0.02900
C2234       C  0.07383487  0.72320509  0.21992693    -0.05500
C2235       C  0.07591987  0.72740261  0.23019479    -0.20600
C2236       C  0.06968811  0.73589068  0.23426388     0.25200
C2237       C  0.06162185  0.74040649  0.22773322    -0.18100
C2238       C  0.05971379  0.73638161  0.21738996    -0.08100
C2239       C  0.07169834  0.74004491  0.24528965    -0.18400
C2240       C  0.06351230  0.74237535  0.25196592    -0.23200
C2241       C  0.06494013  0.74684644  0.26295340     0.27200
C2242       C  0.05731689  0.74426376  0.27085120    -0.19900
C2243       C  0.05756957  0.74930743  0.28089765    -0.09600
C2244       C  0.06520223  0.75736314  0.28314065    -0.10100
C2245       C  0.07310954  0.75968023  0.27538558    -0.03100
C2246       C  0.07303713  0.75440087  0.26539185    -0.18200
H2247       H  0.07849731  0.71641492  0.21708983     0.10900
H2248       H  0.08220992  0.72384216  0.23507563     0.11000
H2249       H  0.05687668  0.74713902  0.23058779     0.10700
H2250       H  0.05357134  0.74010180  0.21245483     0.11800
H2251       H  0.07995033  0.74067094  0.24811826     0.11900
H2252       H  0.05533231  0.74063624  0.24937141     0.13800
H2253       H  0.05101318  0.73846419  0.26916336     0.10300
H2254       H  0.05152072  0.74721609  0.28680713     0.12400
H2255       H  0.07900124  0.76594133  0.27683192     0.09000
H2256       H  0.07891866  0.75668103  0.25938263     0.11700
C2257       C  0.08252764  0.72194729  0.19552840    -0.02900
C2258       C  0.08706221  0.73183205  0.19863303    -0.05500
C2259       C  0.09812954  0.73365201  0.19743058    -0.20600
C2260       C  0.10484745  0.72568974  0.19299653     0.25200
C2261       C  0.10031714  0.71563715  0.19030320    -0.18100
C2262       C  0.08928212  0.71384719  0.19147805    -0.08100
C2263       C  0.11646843  0.72818191  0.19130722    -0.18400
C2264       C  0.12282426  0.72275188  0.18436186    -0.23200
C2265       C  0.13440408  0.72524184  0.18259766     0.27200
C2266       C  0.14118236  0.71702106  0.17883102    -0.19900
C2267       C  0.15214257  0.71894354  0.17715370    -0.09600
C2268       C  0.15654363  0.72921127  0.17901080    -0.10100
C2269       C  0.14970682  0.73754354  0.18246148    -0.03100
C2270       C  0.13875696  0.73558592  0.18426441    -0.18200
H2271       H  0.08200535  0.73828672  0.20158261     0.10900
H2272       H  0.10140179  0.74143357  0.19966426     0.11000
H2273       H  0.10519349  0.70910297  0.18727699     0.10700
H2274       H  0.08596890  0.70613310  0.18907163     0.11800
H2275       H  0.11979695  0.73488934  0.19582876     0.11900
H2276       H  0.11956197  0.71603794  0.17982054     0.13800
H2277       H  0.13801649  0.70901823  0.17735259     0.10300
H2278       H  0.15718271  0.71236708  0.17444027     0.12400
H2279       H  0.15285649  0.74554680  0.18395310     0.09000
H2280       H  0.13373955  0.74222244  0.18682659     0.11700
C2281       C  0.97488334  0.79275137  0.27614714    -0.02900
C2282       C  0.97970950  0.79523488  0.28606057    -0.05500
C2283       C  0.98925851  0.79025184  0.28919639    -0.20600
C2284       C  0.99435851  0.78278360  0.28243502     0.25200
C2285       C  0.98949246  0.78016395  0.27250769    -0.18100
C2286       C  0.97981921  0.78513081  0.26939137    -0.08100
C2287       C  0.00467390  0.77800449  0.28620583    -0.18400
C2288       C  0.01239030  0.77406464  0.27967089    -0.23200
C2289       C  0.02320616  0.77092567  0.28382519     0.27200
C2290       C  0.03228588  0.77229095  0.27722396    -0.19900
C2291       C  0.04267139  0.77070764  0.28135077    -0.09600
C2292       C  0.04414183  0.76756032  0.29211919    -0.10100
C2293       C  0.03505320  0.76558939  0.29852623    -0.03100
C2294       C  0.02469844  0.76715350  0.29441551    -0.18200
H2295       H  0.97606377  0.80107095  0.29142049     0.10900
H2296       H  0.99278032  0.79239420  0.29689461     0.11000
H2297       H  0.99308242  0.77428587  0.26717882     0.10700
H2298       H  0.97631079  0.78316969  0.26164627     0.11800
H2299       H  0.00637691  0.77874524  0.29475318     0.11900
H2300       H  0.01121655  0.77423455  0.27100847     0.13800
H2301       H  0.03136764  0.77510974  0.26901757     0.10300
H2302       H  0.04954398  0.77244839  0.27628606     0.12400
H2303       H  0.03598614  0.76309061  0.30683484     0.09000
H2304       H  0.01790090  0.76559913  0.29962917     0.11700
C2305       C  0.97406438  0.70294266  0.22836137    -0.02900
C2306       C  0.97935833  0.70858152  0.23662659    -0.05500
C2307       C  0.98973074  0.71275605  0.23497333    -0.20600
C2308       C  0.99488335  0.71155379  0.22496940     0.25200
C2309       C  0.98945713  0.70603304  0.21667112    -0.18100
C2310       C  0.97920356  0.70172952  0.21838285    -0.08100
C2311       C  0.00619058  0.71533237  0.22356068    -0.18400
C2312       C  0.00999561  0.71859310  0.21393211    -0.23200
C2313       C  0.02151126  0.72089587  0.21146260     0.27200
C2314       C  0.02385581  0.72608395  0.20170055    -0.19900
C2315       C  0.03441538  0.72677648  0.19795581    -0.09600
C2316       C  0.04293321  0.72233114  0.20388917    -0.10100
C2317       C  0.04076122  0.71770247  0.21398036    -0.03100
C2318       C  0.03012358  0.71697217  0.21775121    -0.18200
H2319       H  0.97562858  0.70942372  0.24446274     0.10900
H2320       H  0.99378318  0.71683434  0.24153881     0.11000
H2321       H  0.99328116  0.70463440  0.20896755     0.10700
H2322       H  0.97532886  0.69728416  0.21194716     0.11800
H2323       H  0.01140091  0.71537405  0.23057405     0.11900
H2324       H  0.00435100  0.71940235  0.20729576     0.13800
H2325       H  0.01742670  0.72918171  0.19668404     0.10300
H2326       H  0.03588885  0.73037534  0.19014474     0.12400
H2327       H  0.04717850  0.71404788  0.21861302     0.09000
H2328       H  0.02866813  0.71276071  0.22523230     0.11700
C2329       C  0.95310440  0.71290523  0.23762424    -0.02900
C2330       C  0.95628218  0.72116349  0.23059651    -0.05500
C2331       C  0.95549796  0.73194785  0.23371050    -0.20600
C2332       C  0.95151895  0.73473086  0.24391977     0.25200
C2333       C  0.94797391  0.72644450  0.25082770    -0.18100
C2334       C  0.94880904  0.71563709  0.24770594    -0.08100
C2335       C  0.95121666  0.74633669  0.24695141    -0.18400
C2336       C  0.95075532  0.74990569  0.25720071    -0.23200
C2337       C  0.95142527  0.76150249  0.26019605     0.27200
C2338       C  0.95491239  0.76422272  0.27061740    -0.19900
C2339       C  0.95611934  0.77500444  0.27364812    -0.09600
C2340       C  0.95382442  0.78328222  0.26632066    -0.10100
C2341       C  0.94994777  0.78063199  0.25604141    -0.03100
C2342       C  0.94871972  0.76984928  0.25299437    -0.18200
H2343       H  0.95945700  0.71924131  0.22271012     0.10900
H2344       H  0.95817040  0.73813910  0.22817313     0.11000
H2345       H  0.94453488  0.72821506  0.25862199     0.10700
H2346       H  0.94632078  0.70938863  0.25325275     0.11800
H2347       H  0.95220758  0.75211201  0.24047033     0.11900
H2348       H  0.95071865  0.74413932  0.26376059     0.13800
H2349       H  0.95691369  0.75797714  0.27637195     0.10300
H2350       H  0.95895068  0.77691202  0.28167635     0.12400
H2351       H  0.94805106  0.78693920  0.25032355     0.09000
H2352       H  0.94563073  0.76813289  0.24503145     0.11700
C2353       C  0.56384738  0.70004672  0.25945157    -0.02900
C2354       C  0.56750702  0.70183326  0.24893041    -0.05500
C2355       C  0.56894775  0.71230429  0.24508203    -0.20600
C2356       C  0.56676605  0.72126315  0.25164991     0.25200
C2357       C  0.56331822  0.71944273  0.26232566    -0.18100
C2358       C  0.56185020  0.70892269  0.26615451    -0.08100
C2359       C  0.56822824  0.73222124  0.24691114    -0.18400
C2360       C  0.56497030  0.74149222  0.25155041    -0.23200
C2361       C  0.56585638  0.75219974  0.24618045     0.27200
C2362       C  0.55876728  0.76042790  0.24930438    -0.19900
C2363       C  0.55880679  0.77035824  0.24399918    -0.09600
C2364       C  0.56600798  0.77231549  0.23552564    -0.10100
C2365       C  0.57349165  0.76434933  0.23273772    -0.03100
C2366       C  0.57344285  0.75437511  0.23801728    -0.18200
H2367       H  0.56905767  0.69508593  0.24362188     0.10900
H2368       H  0.57166074  0.71340363  0.23686626     0.11000
H2369       H  0.56177864  0.72602091  0.26780477     0.10700
H2370       H  0.55918719  0.70768984  0.27436233     0.11800
H2371       H  0.57168284  0.73253872  0.23889743     0.11900
H2372       H  0.56080464  0.74127789  0.25920706     0.13800
H2373       H  0.55294025  0.75905159  0.25564059     0.10300
H2374       H  0.55300916  0.77644878  0.24628932     0.12400
H2375       H  0.57909557  0.76571973  0.22620857     0.09000
H2376       H  0.57931122  0.74841500  0.23562249     0.11700
C2377       C  0.54312615  0.69141453  0.27103880    -0.02900
C2378       C  0.53907363  0.68969383  0.28142634    -0.05500
C2379       C  0.52915956  0.69394547  0.28450434    -0.20600
C2380       C  0.52289333  0.69998289  0.27727517     0.25200
C2381       C  0.52710388  0.70207075  0.26691858    -0.18100
C2382       C  0.53717137  0.69782832  0.26384552    -0.08100
C2383       C  0.51185561  0.70316243  0.28090138    -0.18400
C2384       C  0.50475251  0.70940222  0.27549743    -0.23200
C2385       C  0.49370441  0.71154070  0.27982947     0.27200
C2386       C  0.48854622  0.72143825  0.27782813    -0.19900
C2387       C  0.47855059  0.72382211  0.28260818    -0.09600
C2388       C  0.47348397  0.71627540  0.28937092    -0.10100
C2389       C  0.47835945  0.70617524  0.29082585    -0.03100
C2390       C  0.48826602  0.70380080  0.28607571    -0.18200
H2391       H  0.54348566  0.68476281  0.28711601     0.10900
H2392       H  0.52621838  0.69219752  0.29253001     0.11000
H2393       H  0.52254703  0.70662105  0.26106136     0.10700
H2394       H  0.54006165  0.69913412  0.25572384     0.11800
H2395       H  0.50942907  0.70008656  0.28872083     0.11900
H2396       H  0.50710772  0.71333423  0.26806546     0.13800
H2397       H  0.49246283  0.72750052  0.27293015     0.10300
H2398       H  0.47506564  0.73172684  0.28143910     0.12400
H2399       H  0.47459151  0.70015551  0.29589477     0.09000
H2400       H  0.49169948  0.69590577  0.28742529     0.11700
C2401       C  0.36260550  0.73377574  0.31620717    -0.02900
C2402       C  0.36717842  0.72356332  0.31443714    -0.05500
C2403       C  0.37808493  0.72250336  0.31185921    -0.20600
C2404       C  0.38478424  0.73158464  0.31105285     0.25200
C2405       C  0.38029994  0.74181808  0.31306744    -0.18100
C2406       C  0.36933905  0.74288648  0.31562660    -0.08100
C2407       C  0.39620289  0.72997980  0.30762172    -0.18400
C2408       C  0.40423631  0.73707083  0.30947925    -0.23200
C2409       C  0.41568871  0.73481770  0.30663746     0.27200
C2410       C  0.42386347  0.73897400  0.31325183    -0.19900
C2411       C  0.43464981  0.73634284  0.31138225    -0.09600
C2412       C  0.43756182  0.72972415  0.30267814    -0.10100
C2413       C  0.42947208  0.72605035  0.29566372    -0.03100
C2414       C  0.41862400  0.72854157  0.29763928    -0.18200
H2415       H  0.36226714  0.71635904  0.31478002     0.10900
H2416       H  0.38127888  0.71452430  0.31035624     0.11000
H2417       H  0.38510287  0.74904914  0.31232467     0.10700
H2418       H  0.36607296  0.75088286  0.31682436     0.11800
H2419       H  0.39816792  0.72230376  0.30391525     0.11900
H2420       H  0.40260128  0.74432712  0.31406463     0.13800
H2421       H  0.42186209  0.74391106  0.32016039     0.10300
H2422       H  0.44072924  0.73924708  0.31693251     0.12400
H2423       H  0.43147325  0.72082588  0.28897662     0.09000
H2424       H  0.41255161  0.72544024  0.29220100     0.11700
C2425       C  0.47449360  0.76270500  0.20334833    -0.02900
C2426       C  0.47483896  0.76627159  0.21408003    -0.05500
C2427       C  0.48472448  0.76793427  0.21925708    -0.20600
C2428       C  0.49447112  0.76600236  0.21386070     0.25200
C2429       C  0.49409331  0.76214461  0.20319549    -0.18100
C2430       C  0.48421041  0.76056267  0.19800512    -0.08100
C2431       C  0.50477156  0.76929529  0.21909200    -0.18400
C2432       C  0.51451884  0.76550647  0.21616639    -0.23200
C2433       C  0.52488722  0.77027086  0.21994231     0.27200
C2434       C  0.53439988  0.76419734  0.21911684    -0.19900
C2435       C  0.54445779  0.76891526  0.22117939    -0.09600
C2436       C  0.54519497  0.77984629  0.22403074    -0.10100
C2437       C  0.53568458  0.78583407  0.22514857    -0.03100
C2438       C  0.52564970  0.78112335  0.22316678    -0.18200
H2439       H  0.46749042  0.76827120  0.21830393     0.10900
H2440       H  0.48476320  0.77105890  0.22740684     0.11000
H2441       H  0.50138252  0.76085738  0.19862563     0.10700
H2442       H  0.48415499  0.75794038  0.18968129     0.11800
H2443       H  0.50425684  0.77527224  0.22545609     0.11900
H2444       H  0.51499930  0.75880938  0.21056139     0.13800
H2445       H  0.53407444  0.75586975  0.21651281     0.10300
H2446       H  0.55166437  0.76417484  0.21998240     0.12400
H2447       H  0.53605018  0.79431302  0.22720176     0.09000
H2448       H  0.51859713  0.78619815  0.22359863     0.11700
C2449       C  0.45285674  0.75291767  0.21089666    -0.02900
C2450       C  0.45961523  0.74423851  0.21343163    -0.05500
C2451       C  0.45875394  0.73902398  0.22334093    -0.20600
C2452       C  0.45112038  0.74235935  0.23096232     0.25200
C2453       C  0.44399574  0.75076576  0.22823218    -0.18100
C2454       C  0.44490960  0.75602826  0.21829059    -0.08100
C2455       C  0.45110126  0.73694408  0.24165051    -0.18400
C2456       C  0.44703371  0.74136595  0.25068799    -0.23200
C2457       C  0.44846539  0.73653974  0.26158018     0.27200
C2458       C  0.44765885  0.74327413  0.27064151    -0.19900
C2459       C  0.44961315  0.73925115  0.28097563    -0.09600
C2460       C  0.45241015  0.72840958  0.28244837    -0.10100
C2461       C  0.45287033  0.72155710  0.27349041    -0.03100
C2462       C  0.45083192  0.72553928  0.26315232    -0.18200
H2463       H  0.46571294  0.74163967  0.20777894     0.10900
H2464       H  0.46427058  0.73251695  0.22516230     0.11000
H2465       H  0.43777479  0.75336175  0.23372697     0.10700
H2466       H  0.43961510  0.76271173  0.21648572     0.11800
H2467       H  0.45555091  0.72945051  0.24220569     0.11900
H2468       H  0.44337352  0.74929093  0.25031018     0.13800
H2469       H  0.44576284  0.75174115  0.26970054     0.10300
H2470       H  0.44919807  0.74464117  0.28782294     0.12400
H2471       H  0.45480582  0.71311526  0.27453420     0.09000
H2472       H  0.45110976  0.71995366  0.25647847     0.11700
C2473       C  0.43527494  0.75995273  0.19416251    -0.02900
C2474       C  0.43086380  0.74973041  0.19611601    -0.05500
C2475       C  0.41971777  0.74808374  0.19527151    -0.20600
C2476       C  0.41279138  0.75659551  0.19241743     0.25200
C2477       C  0.41724360  0.76694020  0.19100596    -0.18100
C2478       C  0.42834666  0.76854178  0.19175535    -0.08100
C2479       C  0.40108147  0.75431644  0.19081680    -0.18400
C2480       C  0.39434356  0.76085697  0.18530503    -0.23200
C2481       C  0.38278239  0.75840782  0.18323274     0.27200
C2482       C  0.37570464  0.76698200  0.18115877    -0.19900
C2483       C  0.36480010  0.76507231  0.17905161    -0.09600
C2484       C  0.36073458  0.75450187  0.17878625    -0.10100
C2485       C  0.36787451  0.74589083  0.18057150    -0.03100
C2486       C  0.37876639  0.74780958  0.18278873    -0.18200
H2487       H  0.43605486  0.74295349  0.19788458     0.10900
H2488       H  0.41653110  0.74005401  0.19652457     0.11000
H2489       H  0.41227116  0.77385746  0.18926464     0.10700
H2490       H  0.43157048  0.77652972  0.19032949     0.11800
H2491       H  0.39802492  0.74678609  0.19403880     0.11900
H2492       H  0.39728712  0.76842065  0.18209734     0.13800
H2493       H  0.37859960  0.77521858  0.18131647     0.10300
H2494       H  0.35953489  0.77189257  0.17771530     0.12400
H2495       H  0.36500985  0.73764781  0.18044047     0.09000
H2496       H  0.38401037  0.74096402  0.18399103     0.11700
C2497       C  0.86193767  0.81459387  0.25845286    -0.02900
C2498       C  0.86816848  0.81636406  0.24918710    -0.05500
C2499       C  0.87928790  0.81480542  0.24937388    -0.20600
C2500       C  0.88450113  0.81130483  0.25876770     0.25200
C2501       C  0.87833318  0.80968939  0.26814742    -0.18100
C2502       C  0.86715446  0.81133597  0.26798338    -0.08100
C2503       C  0.89640263  0.80996143  0.25842718    -0.18400
C2504       C  0.90214579  0.80383161  0.26531937    -0.23200
C2505       C  0.91413047  0.80299711  0.26489547     0.27200
C2506       C  0.92053985  0.81105965  0.26014345    -0.19900
C2507       C  0.93175094  0.81049669  0.26062921    -0.09600
C2508       C  0.93690419  0.80196808  0.26597302    -0.10100
C2509       C  0.93055437  0.79376436  0.27051080    -0.03100
C2510       C  0.91928832  0.79428249  0.26996428    -0.18200
H2511       H  0.86443946  0.81889086  0.24171546     0.10900
H2512       H  0.88383649  0.81623406  0.24207180     0.11000
H2513       H  0.88209309  0.80728543  0.27563213     0.10700
H2514       H  0.86258158  0.80989571  0.27526254     0.11800
H2515       H  0.90051692  0.81390602  0.25181443     0.11900
H2516       H  0.89797177  0.79907293  0.27134532     0.13800
H2517       H  0.91700480  0.81809954  0.25644612     0.10300
H2518       H  0.93641888  0.81699452  0.25714832     0.12400
H2519       H  0.93422994  0.78725656  0.27498611     0.09000
H2520       H  0.91458045  0.78800670  0.27378265     0.11700
C2521       C  0.65650125  0.67572039  0.25795780    -0.02900
C2522       C  0.65174501  0.67887737  0.26773459    -0.05500
C2523       C  0.64064604  0.68065710  0.26841509    -0.20600
C2524       C  0.63395784  0.67923299  0.25939511     0.25200
C2525       C  0.63871487  0.67609152  0.24957811    -0.18100
C2526       C  0.64984822  0.67435826  0.24888578    -0.08100
C2527       C  0.62217484  0.68136708  0.26058664    -0.18400
C2528       C  0.61457156  0.67771415  0.25371132    -0.23200
C2529       C  0.60277258  0.67928868  0.25536891     0.27200
C2530       C  0.59562275  0.67189403  0.25065067    -0.19900
C2531       C  0.58453774  0.67266113  0.25243890    -0.09600
C2532       C  0.58028185  0.68097743  0.25881522    -0.10100
C2533       C  0.58734887  0.68867641  0.26317563    -0.03100
C2534       C  0.59848799  0.68785425  0.26147161    -0.18200
H2535       H  0.65662130  0.68012080  0.27486245     0.10900
H2536       H  0.63726487  0.68314993  0.27605910     0.11000
H2537       H  0.63396255  0.67517005  0.24234113     0.10700
H2538       H  0.65325666  0.67202935  0.24120662     0.11800
H2539       H  0.61966262  0.68562390  0.26779035     0.11900
H2540       H  0.61694027  0.67267239  0.24699087     0.13800
H2541       H  0.59865149  0.66528620  0.24582948     0.10300
H2542       H  0.57927677  0.66659455  0.24900923     0.12400
H2543       H  0.58431528  0.69507115  0.26826162     0.09000
H2544       H  0.60368652  0.69389946  0.26499858     0.11700
C2545       C  0.86178894  0.67759288  0.24028271    -0.02900
C2546       C  0.86695621  0.67817535  0.23023120    -0.05500
C2547       C  0.87776202  0.68129172  0.22948622    -0.20600
C2548       C  0.88374349  0.68391957  0.23873954     0.25200
C2549       C  0.87863439  0.68313481  0.24884857    -0.18100
C2550       C  0.86781114  0.67996890  0.24959455    -0.08100
C2551       C  0.89511550  0.68767397  0.23733286    -0.18400
C2552       C  0.90241656  0.68854462  0.24535626    -0.23200
C2553       C  0.91395104  0.69130953  0.24343414     0.27200
C2554       C  0.92179584  0.68679425  0.25020744    -0.19900
C2555       C  0.93274950  0.68815290  0.24799660    -0.09600
C2556       C  0.93610329  0.69434529  0.23916921    -0.10100
C2557       C  0.92833336  0.69953044  0.23281369    -0.03100
C2558       C  0.91732695  0.69800246  0.23489784    -0.18200
H2559       H  0.86258139  0.67645102  0.22288012     0.10900
H2560       H  0.88142927  0.68178972  0.22158889     0.11000
H2561       H  0.88279421  0.68523158  0.25620275     0.10700
H2562       H  0.86405942  0.67973923  0.25745950     0.11800
H2563       H  0.89773305  0.68926726  0.22914407     0.11900
H2564       H  0.90024049  0.68617532  0.25346679     0.13800
H2565       H  0.91944393  0.68171858  0.25690173     0.10300
H2566       H  0.93862661  0.68400629  0.25293056     0.12400
H2567       H  0.93076737  0.70425409  0.22589775     0.09000
H2568       H  0.91150254  0.70187773  0.22970280     0.11700
C2569       C  0.83062797  0.78298702  0.25435937    -0.02900
C2570       C  0.83076667  0.77778588  0.24429944    -0.05500
C2571       C  0.83085870  0.76652205  0.24363003    -0.20600
C2572       C  0.83086615  0.76017387  0.25305111     0.25200
C2573       C  0.83089933  0.76542465  0.26308120    -0.18100
C2574       C  0.83078261  0.77666666  0.26374020    -0.08100
C2575       C  0.83049738  0.74814407  0.25296070    -0.18400
C2576       C  0.83136152  0.74195124  0.24406067    -0.23200
C2577       C  0.83067928  0.72994721  0.24415281     0.27200
C2578       C  0.82865820  0.72457070  0.23439809    -0.19900
C2579       C  0.82810896  0.71331979  0.23400252    -0.09600
C2580       C  0.82959676  0.70714515  0.24337325    -0.10100
C2581       C  0.83164235  0.71249497  0.25314389    -0.03100
C2582       C  0.83224263  0.72374900  0.25353532    -0.18200
H2583       H  0.83065791  0.78242066  0.23691130     0.10900
H2584       H  0.83073205  0.76295708  0.23570040     0.11000
H2585       H  0.83092719  0.76080068  0.27048077     0.10700
H2586       H  0.83074158  0.78039978  0.27162687     0.11800
H2587       H  0.82923582  0.74429259  0.26068677     0.11900
H2588       H  0.83237716  0.74569655  0.23625686     0.13800
H2589       H  0.82748532  0.72909958  0.22703273     0.10300
H2590       H  0.82654851  0.70946164  0.22633057     0.12400
H2591       H  0.83295951  0.70797492  0.26048675     0.09000
H2592       H  0.83416625  0.72745632  0.26117374     0.11700
C2593       C  0.79701796  0.67362082  0.24365020    -0.02900
C2594       C  0.79079089  0.67439446  0.23422951    -0.05500
C2595       C  0.77959120  0.67344966  0.23466215    -0.20600
C2596       C  0.77430065  0.67175468  0.24450545     0.25200
C2597       C  0.78053710  0.67095174  0.25396302    -0.18100
C2598       C  0.79175751  0.67192893  0.25352914    -0.08100
C2599       C  0.76234691  0.67065184  0.24440602    -0.18400
C2600       C  0.75607485  0.67185350  0.25318987    -0.23200
C2601       C  0.74406248  0.67132996  0.25314730     0.27200
C2602       C  0.73870691  0.67191037  0.26308638    -0.19900
C2603       C  0.72747700  0.67201116  0.26359058    -0.09600
C2604       C  0.72126389  0.67154423  0.25413929    -0.10100
C2605       C  0.72656433  0.67077030  0.24417764    -0.03100
C2606       C  0.73782420  0.67067653  0.24366166    -0.18200
H2607       H  0.79457150  0.67567426  0.22647858     0.10900
H2608       H  0.77503097  0.67405942  0.22724598     0.11000
H2609       H  0.77689050  0.66933914  0.26169323     0.10700
H2610       H  0.79632451  0.67118179  0.26092468     0.11800
H2611       H  0.75868845  0.66910968  0.23664437     0.11900
H2612       H  0.75983316  0.67361588  0.26087143     0.13800
H2613       H  0.74323754  0.67240692  0.27053152     0.10300
H2614       H  0.72367044  0.67256993  0.27141219     0.12400
H2615       H  0.72201283  0.67038103  0.23674241     0.09000
H2616       H  0.74146483  0.67029737  0.23578661     0.11700
C2617       C  0.65694792  0.81073904  0.24051688    -0.02900
C2618       C  0.65325992  0.80990921  0.22983755    -0.05500
C2619       C  0.64253235  0.80731660  0.22761182    -0.20600
C2620       C  0.63518624  0.80530346  0.23596227     0.25200
C2621       C  0.63876784  0.80633177  0.24668410    -0.18100
C2622       C  0.64953219  0.80905833  0.24892703    -0.08100
C2623       C  0.62387914  0.80247079  0.23298633    -0.18400
C2624       C  0.61699875  0.79675847  0.23922253    -0.23200
C2625       C  0.60586179  0.79365016  0.23569474     0.27200
C2626       C  0.59812628  0.79069235  0.24345359    -0.19900
C2627       C  0.58743950  0.78841101  0.24043943    -0.09600
C2628       C  0.58430802  0.78902562  0.22958883    -0.10100
C2629       C  0.59215077  0.79137180  0.22180283    -0.03100
C2630       C  0.60278370  0.79354137  0.22476996    -0.18200
H2631       H  0.65870281  0.81116233  0.22314573     0.10900
H2632       H  0.64000212  0.80669093  0.21927986     0.11000
H2633       H  0.63328909  0.80513295  0.25334220     0.10700
H2634       H  0.65209450  0.80964516  0.25724573     0.11800
H2635       H  0.62132039  0.80502859  0.22504589     0.11900
H2636       H  0.61952332  0.79431080  0.24722368     0.13800
H2637       H  0.60026274  0.79052311  0.25191112     0.10300
H2638       H  0.58152584  0.78675027  0.24662280     0.12400
H2639       H  0.58995892  0.79181810  0.21336612     0.09000
H2640       H  0.60847757  0.79520737  0.21841477     0.11700
C2641       C  0.69022571  0.78212182  0.25113382    -0.02900
C2642       C  0.68776640  0.77762880  0.26122891    -0.05500
C2643       C  0.68812547  0.76646088  0.26280436    -0.20600
C2644       C  0.69099251  0.75946488  0.25437361     0.25200
C2645       C  0.69360754  0.76400821  0.24428831    -0.18100
C2646       C  0.69322647  0.77517688  0.24271747    -0.08100
C2647       C  0.69067208  0.74757003  0.25641214    -0.18400
C2648       C  0.69396890  0.73999574  0.24933017    -0.23200
C2649       C  0.69282160  0.72814259  0.25104011     0.27200
C2650       C  0.69298355  0.72138593  0.24196563    -0.19900
C2651       C  0.69192106  0.71021984  0.24302684    -0.09600
C2652       C  0.69079682  0.70546387  0.25323418    -0.10100
C2653       C  0.69076814  0.71218893  0.26236887    -0.03100
C2654       C  0.69176463  0.72340359  0.26129963    -0.18200
H2655       H  0.68544303  0.78273224  0.26790776     0.10900
H2656       H  0.68605133  0.76326660  0.27065301     0.11000
H2657       H  0.69576235  0.75908734  0.23746175     0.10700
H2658       H  0.69521401  0.77836477  0.23484630     0.11800
H2659       H  0.68721136  0.74500272  0.26400564     0.11900
H2660       H  0.69727622  0.74242420  0.24164743     0.13800
H2661       H  0.69385838  0.72477495  0.23397292     0.10300
H2662       H  0.69206346  0.70530258  0.23582035     0.12400
H2663       H  0.69000679  0.70878427  0.27036203     0.09000
H2664       H  0.69189400  0.72825365  0.26853451     0.11700
C2665       C  0.72077075  0.81595928  0.25199733    -0.02900
C2666       C  0.72493047  0.81768468  0.26239442    -0.05500
C2667       C  0.73606877  0.81774822  0.26417834    -0.20600
C2668       C  0.74329002  0.81615848  0.25562202     0.25200
C2669       C  0.73909371  0.81440402  0.24522661    -0.18100
C2670       C  0.72799731  0.81437632  0.24344510    -0.08100
C2671       C  0.75507089  0.81582123  0.25789756    -0.18400
C2672       C  0.76261517  0.81753907  0.25027175    -0.23200
C2673       C  0.77447631  0.81667358  0.25192436     0.27200
C2674       C  0.78113193  0.81761037  0.24283491    -0.19900
C2675       C  0.79230611  0.81692068  0.24377061    -0.09600
C2676       C  0.79716486  0.81532390  0.25386364    -0.10100
C2677       C  0.79055147  0.81431637  0.26299026    -0.03100
C2678       C  0.77933069  0.81497214  0.26205309    -0.18200
H2679       H  0.71958631  0.81889898  0.26916924     0.10900
H2680       H  0.73905701  0.81901446  0.27228200     0.11000
H2681       H  0.74428086  0.81272819  0.23845015     0.10700
H2682       H  0.72508193  0.81291423  0.23535096     0.11800
H2683       H  0.75744181  0.81412682  0.26611850     0.11900
H2684       H  0.76002485  0.81969742  0.24221431     0.13800
H2685       H  0.77767058  0.81890123  0.23492598     0.10300
H2686       H  0.79714187  0.81776067  0.23656756     0.12400
H2687       H  0.79404912  0.81309670  0.27088978     0.09000
H2688       H  0.77461642  0.81424697  0.26931423     0.11700
C2689       C  0.69706404  0.56439465  0.25985619    -0.02900
C2690       C  0.68911835  0.56825706  0.25281260    -0.05500
C2691       C  0.68804640  0.57931167  0.25088601    -0.20600
C2692       C  0.69469159  0.58679016  0.25618251     0.25200
C2693       C  0.70284490  0.58288668  0.26306316    -0.18100
C2694       C  0.70402252  0.57178324  0.26485401    -0.08100
C2695       C  0.69283146  0.59852878  0.25429274    -0.18400
C2696       C  0.69532693  0.60623821  0.26155681    -0.23200
C2697       C  0.69296568  0.61797857  0.26017722     0.27200
C2698       C  0.69347107  0.62466518  0.26929698    -0.19900
C2699       C  0.69168150  0.63576562  0.26847652    -0.09600
C2700       C  0.68941034  0.64054544  0.25846607    -0.10100
C2701       C  0.68880988  0.63387155  0.24931160    -0.03100
C2702       C  0.69057015  0.62272699  0.25013854    -0.18200
H2703       H  0.68364482  0.56270016  0.24889042     0.10900
H2704       H  0.68178111  0.58205294  0.24546964     0.11000
H2705       H  0.70832563  0.58835536  0.26706875     0.10700
H2706       H  0.71014089  0.56898807  0.27040548     0.11800
H2707       H  0.68854515  0.60071601  0.24700461     0.11900
H2708       H  0.69880922  0.60381521  0.26920265     0.13800
H2709       H  0.69534088  0.62129207  0.27712586     0.10300
H2710       H  0.69231309  0.64063897  0.27568675     0.12400
H2711       H  0.68718546  0.63728874  0.24145232     0.09000
H2712       H  0.69031664  0.61797833  0.24284377     0.11700
C2713       C  0.78894631  0.55220612  0.23633210    -0.02900
C2714       C  0.78789899  0.55597746  0.24692935    -0.05500
C2715       C  0.77769329  0.55687137  0.25164584    -0.20600
C2716       C  0.76837499  0.55408977  0.24582705     0.25200
C2717       C  0.76950042  0.55043444  0.23514572    -0.18100
C2718       C  0.77966614  0.54955398  0.23047231    -0.08100
C2719       C  0.75774225  0.55422783  0.25136076    -0.18400
C2720       C  0.74828298  0.55452263  0.24602888    -0.23200
C2721       C  0.73754701  0.55319607  0.25117994     0.27200
C2722       C  0.72835149  0.55572682  0.24510350    -0.19900
C2723       C  0.71806781  0.55365781  0.24912806    -0.09600
C2724       C  0.71673543  0.54900288  0.25933192    -0.10100
C2725       C  0.72586885  0.54669121  0.26556199    -0.03100
C2726       C  0.73619075  0.54869451  0.26151780    -0.18200
H2727       H  0.79498540  0.55796998  0.25160394     0.10900
H2728       H  0.77708049  0.55959148  0.25991435     0.11000
H2729       H  0.76263285  0.54785844  0.23045489     0.10700
H2730       H  0.78033152  0.54663397  0.22227922     0.11800
H2731       H  0.75780386  0.55402562  0.26009243     0.11900
H2732       H  0.74831400  0.55573139  0.23737415     0.13800
H2733       H  0.72912691  0.55910802  0.23709698     0.10300
H2734       H  0.71113110  0.55541150  0.24414890     0.12400
H2735       H  0.72499714  0.54315276  0.27348313     0.09000
H2736       H  0.74301029  0.54637201  0.26639291     0.11700
C2737       C  0.80814934  0.56905148  0.23461783    -0.02900
C2738       C  0.79941263  0.57619578  0.23373574    -0.05500
C2739       C  0.80073404  0.58719327  0.23615196    -0.20600
C2740       C  0.81085731  0.59126801  0.23919891     0.25200
C2741       C  0.81944253  0.58404742  0.24048429    -0.18100
C2742       C  0.81808707  0.57310065  0.23826731    -0.08100
C2743       C  0.81245675  0.60304870  0.24086116    -0.18400
C2744       C  0.82145158  0.60811570  0.23747217    -0.23200
C2745       C  0.82329551  0.61989569  0.23862246     0.27200
C2746       C  0.82855733  0.62546972  0.23031571    -0.19900
C2747       C  0.83055087  0.63654329  0.23116397    -0.09600
C2748       C  0.82765563  0.64222162  0.24051155    -0.10100
C2749       C  0.82266830  0.63657353  0.24898057    -0.03100
C2750       C  0.82040311  0.62553454  0.24800259    -0.18200
H2751       H  0.79171691  0.57342034  0.23073332     0.10900
H2752       H  0.79397187  0.59260506  0.23517474     0.11000
H2753       H  0.82725831  0.58688162  0.24312280     0.10700
H2754       H  0.82494738  0.56780147  0.23916899     0.11800
H2755       H  0.80589761  0.60772121  0.24425808     0.11900
H2756       H  0.82744844  0.60355875  0.23302824     0.13800
H2757       H  0.83095887  0.62126962  0.22305714     0.10300
H2758       H  0.83437853  0.64067094  0.22450225     0.12400
H2759       H  0.82026334  0.64075328  0.25624710     0.09000
H2760       H  0.81653449  0.62138580  0.25462386     0.11700
C2761       C  0.72767505  0.45605766  0.28908939    -0.02900
C2762       C  0.71692471  0.45942177  0.28947761    -0.05500
C2763       C  0.71390590  0.46945846  0.28547625    -0.20600
C2764       C  0.72154898  0.47650076  0.28102776     0.25200
C2765       C  0.73229724  0.47294478  0.28011702    -0.18100
C2766       C  0.73532418  0.46275931  0.28411031    -0.08100
C2767       C  0.71786452  0.48764960  0.27843174    -0.18400
C2768       C  0.72366248  0.49546688  0.27357769    -0.23200
C2769       C  0.71915499  0.50654316  0.27225595     0.27200
C2770       C  0.72128141  0.51259219  0.26291593    -0.19900
C2771       C  0.71628990  0.52263636  0.26129250    -0.09600
C2772       C  0.70926101  0.52686633  0.26909571    -0.10100
C2773       C  0.70760399  0.52103934  0.27863973    -0.03100
C2774       C  0.71252545  0.51106506  0.28023797    -0.18200
H2775       H  0.71088525  0.45442030  0.29330439     0.10900
H2776       H  0.70557819  0.47190249  0.28627587     0.11000
H2777       H  0.73845771  0.47812650  0.27680514     0.10700
H2778       H  0.74370675  0.46040217  0.28387963     0.11800
H2779       H  0.70968744  0.48958733  0.28083097     0.11900
H2780       H  0.73153026  0.49373691  0.27024270     0.13800
H2781       H  0.72644442  0.50934785  0.25669249     0.10300
H2782       H  0.71759726  0.52687289  0.25378376     0.12400
H2783       H  0.70231821  0.52414746  0.28483331     0.09000
H2784       H  0.71102903  0.50684092  0.28771928     0.11700
C2785       C  0.78730173  0.45823504  0.20890159    -0.02900
C2786       C  0.77717142  0.46311230  0.20996690    -0.05500
C2787       C  0.77632885  0.47379636  0.21354278    -0.20600
C2788       C  0.78555847  0.47968356  0.21640886     0.25200
C2789       C  0.79564564  0.47456890  0.21592427    -0.18100
C2790       C  0.79650772  0.46399042  0.21208810    -0.08100
C2791       C  0.78470196  0.49146674  0.21846238    -0.18400
C2792       C  0.79109014  0.49672220  0.22549291    -0.23200
C2793       C  0.79177196  0.50868909  0.22609116     0.27200
C2794       C  0.79461473  0.51364199  0.23587296    -0.19900
C2795       C  0.79716812  0.52464674  0.23623726    -0.09600
C2796       C  0.79717832  0.53080930  0.22676981    -0.10100
C2797       C  0.79392724  0.52600036  0.21707017    -0.03100
C2798       C  0.79111259  0.51507242  0.21674290    -0.18200
H2799       H  0.76998122  0.45890878  0.20737024     0.10900
H2800       H  0.76848750  0.47759448  0.21373826     0.11000
H2801       H  0.80293391  0.47895596  0.21784832     0.10700
H2802       H  0.80441355  0.46042959  0.21121001     0.11800
H2803       H  0.77879908  0.49596880  0.21383635     0.11900
H2804       H  0.79628088  0.49209857  0.23080775     0.13800
H2805       H  0.79528746  0.50888728  0.24315737     0.10300
H2806       H  0.79986941  0.52816701  0.24375601     0.12400
H2807       H  0.79410095  0.53058222  0.20964764     0.09000
H2808       H  0.78919384  0.51147633  0.20903005     0.11700
C2809       C  0.77591199  0.43678133  0.21370394    -0.02900
C2810       C  0.76496414  0.43419719  0.21274965    -0.05500
C2811       C  0.75850684  0.43339634  0.22199463    -0.20600
C2812       C  0.76291798  0.43507749  0.23231533     0.25200
C2813       C  0.77395040  0.43753952  0.23316293    -0.18100
C2814       C  0.78034248  0.43830358  0.22397861    -0.08100
C2815       C  0.75575491  0.43498426  0.24196249    -0.18400
C2816       C  0.75949813  0.43327838  0.25203906    -0.23200
C2817       C  0.75311131  0.43426034  0.26216728     0.27200
C2818       C  0.75862625  0.43312292  0.27199457    -0.19900
C2819       C  0.75327137  0.43427794  0.28180059    -0.09600
C2820       C  0.74225523  0.43662542  0.28204880    -0.10100
C2821       C  0.73663607  0.43771677  0.27229800    -0.03100
C2822       C  0.74199014  0.43652973  0.26242538    -0.18200
H2823       H  0.76138530  0.43314075  0.20486505     0.10900
H2824       H  0.75002063  0.43161935  0.22108275     0.11000
H2825       H  0.77765821  0.43932314  0.24083895     0.10700
H2826       H  0.78875931  0.44040528  0.22484252     0.11800
H2827       H  0.74728061  0.43650005  0.24061145     0.11900
H2828       H  0.76790540  0.43117540  0.25305761     0.13800
H2829       H  0.76717750  0.43143588  0.27210401     0.10300
H2830       H  0.75776029  0.43349534  0.28923909     0.12400
H2831       H  0.72809782  0.43943648  0.27234951     0.09000
H2832       H  0.73735469  0.43743263  0.25512146     0.11700
C2833       C  0.75909675  0.17248513  0.20910016    -0.02900
C2834       C  0.76923549  0.17121180  0.21394570    -0.05500
C2835       C  0.77020891  0.17064826  0.22514221    -0.20600
C2836       C  0.76110388  0.17138068  0.23179020     0.25200
C2837       C  0.75092320  0.17259924  0.22692811    -0.18100
C2838       C  0.74995579  0.17318226  0.21571743    -0.08100
C2839       C  0.76268175  0.17064267  0.24366438    -0.18400
C2840       C  0.75518866  0.17335841  0.25102591    -0.23200
C2841       C  0.75702677  0.17288236  0.26286285     0.27200
C2842       C  0.74805678  0.17257131  0.26971613    -0.19900
C2843       C  0.74936304  0.17245055  0.28089840    -0.09600
C2844       C  0.75969972  0.17272165  0.28549980    -0.10100
C2845       C  0.76869200  0.17308158  0.27865854    -0.03100
C2846       C  0.76738693  0.17319892  0.26747165    -0.18200
H2847       H  0.77644572  0.17062527  0.20908817     0.10900
H2848       H  0.77814274  0.16966382  0.22863065     0.11000
H2849       H  0.74362995  0.17293095  0.23163877     0.10700
H2850       H  0.74201557  0.17408417  0.21223151     0.11800
H2851       H  0.77047800  0.16781188  0.24638153     0.11900
H2852       H  0.74731148  0.17603817  0.24842130     0.13800
H2853       H  0.73998876  0.17241509  0.26640118     0.10300
H2854       H  0.74225745  0.17220327  0.28593465     0.12400
H2855       H  0.77676325  0.17337521  0.28194566     0.09000
H2856       H  0.77452259  0.17380919  0.26254111     0.11700
C2857       C  0.74570208  0.34549022  0.31375826    -0.02900
C2858       C  0.73550711  0.35028591  0.31266432    -0.05500
C2859       C  0.73453119  0.36114704  0.30981315    -0.20600
C2860       C  0.74369634  0.36752497  0.30806165     0.25200
C2861       C  0.75391764  0.36278845  0.30928199    -0.18100
C2862       C  0.75489861  0.35189989  0.31212425    -0.08100
C2863       C  0.74224299  0.37894421  0.30465012    -0.18400
C2864       C  0.74951993  0.38676518  0.30659870    -0.23200
C2865       C  0.74738741  0.39829733  0.30417063     0.27200
C2866       C  0.75102815  0.40614711  0.31144001    -0.19900
C2867       C  0.74830753  0.41697549  0.31000037    -0.09600
C2868       C  0.74215912  0.42022893  0.30108357    -0.10100
C2869       C  0.73907953  0.41249601  0.29341354    -0.03100
C2870       C  0.74161489  0.40158954  0.29497380    -0.18200
H2871       H  0.72824854  0.34558950  0.31380528     0.10900
H2872       H  0.72656387  0.36457047  0.30891278     0.11000
H2873       H  0.76116884  0.36735883  0.30773356     0.10700
H2874       H  0.76286616  0.34842183  0.31271217     0.11800
H2875       H  0.73455533  0.38113202  0.30109503     0.11900
H2876       H  0.75674774  0.38488634  0.31113723     0.13800
H2877       H  0.75555331  0.40382708  0.31853175     0.10300
H2878       H  0.75070876  0.42279313  0.31605270     0.12400
H2879       H  0.73421399  0.41479492  0.28654930     0.09000
H2880       H  0.73890578  0.39572891  0.28910299     0.11700
C2881       C  0.75070188  0.28078656  0.31688143    -0.02900
C2882       C  0.74204857  0.27452773  0.31310920    -0.05500
C2883       C  0.74252737  0.26329119  0.31337545    -0.20600
C2884       C  0.75166057  0.25800206  0.31738649     0.25200
C2885       C  0.76029033  0.26425400  0.32132216    -0.18100
C2886       C  0.75983063  0.27553327  0.32100370    -0.08100
C2887       C  0.75167348  0.24600371  0.31755043    -0.18400
C2888       C  0.76069053  0.23998844  0.31796782    -0.23200
C2889       C  0.76072716  0.22797683  0.31784943     0.27200
C2890       C  0.77031856  0.22263730  0.31518620    -0.19900
C2891       C  0.77084404  0.21138168  0.31517048    -0.09600
C2892       C  0.76176867  0.20517043  0.31783995    -0.10100
C2893       C  0.75215615  0.21048747  0.32052367    -0.03100
C2894       C  0.75164385  0.22175450  0.32059931    -0.18200
H2895       H  0.73488434  0.27831459  0.30989287     0.10900
H2896       H  0.73573554  0.25870401  0.31036923     0.11000
H2897       H  0.76732877  0.26051791  0.32482219     0.10700
H2898       H  0.76655215  0.28013869  0.32412707     0.11800
H2899       H  0.74393285  0.24205480  0.31669221     0.11900
H2900       H  0.76846437  0.24397012  0.31788406     0.13800
H2901       H  0.77745163  0.22719879  0.31308736     0.10300
H2902       H  0.77837160  0.20754740  0.31303913     0.12400
H2903       H  0.74504674  0.20593939  0.32271585     0.09000
H2904       H  0.74417530  0.22548420  0.32302805     0.11700
C2905       C  0.76773639  0.34698686  0.18032818    -0.02900
C2906       C  0.75855110  0.35256392  0.18388802    -0.05500
C2907       C  0.75922916  0.36337937  0.18705515    -0.20600
C2908       C  0.76902166  0.36897202  0.18644720     0.25200
C2909       C  0.77819651  0.36347510  0.18270967    -0.18100
C2910       C  0.77757930  0.35256542  0.17978940    -0.08100
C2911       C  0.76956242  0.38038890  0.19013292    -0.18400
C2912       C  0.77552090  0.38783134  0.18498784    -0.23200
C2913       C  0.77620567  0.39935472  0.18826932     0.27200
C2914       C  0.77779903  0.40709721  0.18023606    -0.19900
C2915       C  0.77982575  0.41782698  0.18291971    -0.09600
C2916       C  0.78063717  0.42112142  0.19374797    -0.10100
C2917       C  0.77862981  0.41344924  0.20185353    -0.03100
C2918       C  0.77632624  0.40266741  0.19913227    -0.18200
H2919       H  0.75088205  0.34846499  0.18454813     0.10900
H2920       H  0.75206962  0.36740717  0.18996644     0.11000
H2921       H  0.78591219  0.36751887  0.18234195     0.10700
H2922       H  0.78481512  0.34847360  0.17717865     0.11800
H2923       H  0.76446200  0.38284211  0.19679693     0.11900
H2924       H  0.77972116  0.38550244  0.17767265     0.13800
H2925       H  0.77771265  0.40478592  0.17181739     0.10300
H2926       H  0.78116395  0.42350944  0.17644187     0.12400
H2927       H  0.77944100  0.41557216  0.21026360     0.09000
H2928       H  0.77528811  0.39682923  0.20552248     0.11700
C2929       C  0.76275997  0.28237241  0.17430207    -0.02900
C2930       C  0.75254818  0.27757038  0.17343512    -0.05500
C2931       C  0.75143609  0.26635409  0.17338085    -0.20600
C2932       C  0.76046892  0.25960281  0.17420771     0.25200
C2933       C  0.77073489  0.26440806  0.17490509    -0.18100
C2934       C  0.77184293  0.27565392  0.17498431    -0.08100
C2935       C  0.75869026  0.24768778  0.17414374    -0.18400
C2936       C  0.76618538  0.24026345  0.17678331    -0.23200
C2937       C  0.76411415  0.22840625  0.17679928     0.27200
C2938       C  0.77290184  0.22132677  0.17610697    -0.19900
C2939       C  0.77135268  0.21014565  0.17617487    -0.09600
C2940       C  0.76095211  0.20575227  0.17703344    -0.10100
C2941       C  0.75216237  0.21282618  0.17789404    -0.03100
C2942       C  0.75370971  0.22400294  0.17781842    -0.18200
H2943       H  0.74536929  0.28247943  0.17289631     0.10900
H2944       H  0.74343259  0.26293314  0.17277514     0.11000
H2945       H  0.77796925  0.25961071  0.17529226     0.10700
H2946       H  0.77983694  0.27908634  0.17558221     0.11800
H2947       H  0.75071424  0.24498153  0.17183620     0.11900
H2948       H  0.77425137  0.24282266  0.17890082     0.13800
H2949       H  0.78101286  0.22446351  0.17542866     0.10300
H2950       H  0.77831602  0.20494624  0.17554416     0.12400
H2951       H  0.74405023  0.20972830  0.17867230     0.09000
H2952       H  0.74672963  0.22910328  0.17876656     0.11700
C2953       C  0.75356040  0.31341265  0.28431148    -0.02900
C2954       C  0.76363161  0.31657532  0.28026193    -0.05500
C2955       C  0.76558673  0.31663555  0.26917872    -0.20600
C2956       C  0.75756083  0.31351432  0.26183640     0.25200
C2957       C  0.74747045  0.31026847  0.26590356    -0.18100
C2958       C  0.74548686  0.31030411  0.27701010    -0.08100
C2959       C  0.76024657  0.31353224  0.25011825    -0.18400
C2960       C  0.75292391  0.31268155  0.24212707    -0.23200
C2961       C  0.75563269  0.31284772  0.23041719     0.27200
C2962       C  0.74725229  0.31440676  0.22298323    -0.19900
C2963       C  0.74929720  0.31463150  0.21191672    -0.09600
C2964       C  0.75980559  0.31327801  0.20797411    -0.10100
C2965       C  0.76820234  0.31157249  0.21537196    -0.03100
C2966       C  0.76615113  0.31130089  0.22645868    -0.18200
H2967       H  0.77002123  0.31905346  0.28566411     0.10900
H2968       H  0.77343944  0.31913488  0.26633010     0.11000
H2969       H  0.74110776  0.30751407  0.26064596     0.10700
H2970       H  0.73767500  0.30772508  0.27989084     0.11800
H2971       H  0.76864559  0.31469558  0.24809111     0.11900
H2972       H  0.74445035  0.31226650  0.24412453     0.13800
H2973       H  0.73906466  0.31552821  0.22575089     0.10300
H2974       H  0.74262574  0.31593309  0.20645160     0.12400
H2975       H  0.77637615  0.31039924  0.21259637     0.09000
H2976       H  0.77283722  0.30973530  0.23179808     0.11700
C2977       C  0.73483936  0.06770495  0.19225219    -0.02900
C2978       C  0.72622825  0.07432913  0.18911025    -0.05500
C2979       C  0.72756288  0.08545659  0.18807009    -0.20600
C2980       C  0.73760340  0.09028458  0.18993396     0.25200
C2981       C  0.74618085  0.08373779  0.19348543    -0.18100
C2982       C  0.74479295  0.07253476  0.19465929    -0.08100
C2983       C  0.73863372  0.10214013  0.18810504    -0.18400
C2984       C  0.74784167  0.10705786  0.18503189    -0.23200
C2985       C  0.74884130  0.11885757  0.18254703     0.27200
C2986       C  0.75918324  0.12322716  0.18108955    -0.19900
C2987       C  0.76063154  0.13423078  0.17897334    -0.09600
C2988       C  0.75175485  0.14121248  0.17821712    -0.10100
C2989       C  0.74137777  0.13682422  0.17936797    -0.03100
C2990       C  0.73991994  0.12580688  0.18146070    -0.18200
H2991       H  0.71847619  0.07082731  0.18715743     0.10900
H2992       H  0.72079116  0.09027423  0.18543227     0.11000
H2993       H  0.75396647  0.08721806  0.19527858     0.10700
H2994       H  0.75160937  0.06761500  0.19694838     0.11800
H2995       H  0.73129868  0.10677800  0.18880561     0.11900
H2996       H  0.75505191  0.10220685  0.18418417     0.13800
H2997       H  0.76621898  0.11812689  0.18175452     0.10300
H2998       H  0.76875000  0.13730096  0.17815070     0.12400
H2999       H  0.73434696  0.14193835  0.17878956     0.09000
H3000       H  0.73176886  0.12288613  0.18219127     0.11700
C3001       C  0.74249647  0.04945145  0.20832670    -0.02900
C3002       C  0.75204162  0.04382560  0.21043508    -0.05500
C3003       C  0.75695375  0.04447059  0.22053890    -0.20600
C3004       C  0.75239383  0.05067750  0.22882386     0.25200
C3005       C  0.74297659  0.05662077  0.22657633    -0.18100
C3006       C  0.73808527  0.05599241  0.21640747    -0.08100
C3007       C  0.75775892  0.05058886  0.23959219    -0.18400
C3008       C  0.75295435  0.05361875  0.24886114    -0.23200
C3009       C  0.75794941  0.05263156  0.25978561     0.27200
C3010       C  0.75138033  0.05428274  0.26885628    -0.19900
C3011       C  0.75546358  0.05299937  0.27928006    -0.09600
C3012       C  0.76620842  0.04999023  0.28088246    -0.10100
C3013       C  0.77290860  0.04861422  0.27190673    -0.03100
C3014       C  0.76886973  0.04997809  0.26146152    -0.18200
H3015       H  0.75561903  0.03882393  0.20425575     0.10900
H3016       H  0.76424495  0.03990515  0.22195254     0.11000
H3017       H  0.73933769  0.06176661  0.23257275     0.10700
H3018       H  0.73072284  0.06040229  0.21490733     0.11800
H3019       H  0.76577810  0.04720012  0.23984326     0.11900
H3020       H  0.74469626  0.05640865  0.24860942     0.13800
H3021       H  0.74297813  0.05638387  0.26787868     0.10300
H3022       H  0.75015857  0.05404299  0.28611390     0.12400
H3023       H  0.78126638  0.04641288  0.27301266     0.09000
H3024       H  0.77438004  0.04890115  0.25483501     0.11700
C3025       C  0.76499368  0.14027971  0.31534513    -0.02900
C3026       C  0.77494691  0.13528710  0.31335370    -0.05500
C3027       C  0.77545885  0.12439457  0.31051171    -0.20600
C3028       C  0.76606928  0.11815010  0.30963904     0.25200
C3029       C  0.75609590  0.12306443  0.31187797    -0.18100
C3030       C  0.75558290  0.13399542  0.31472150    -0.08100
C3031       C  0.76710532  0.10672503  0.30599865    -0.18400
C3032       C  0.75946526  0.09911906  0.30734411    -0.23200
C3033       C  0.76117166  0.08759251  0.30445929     0.27200
C3034       C  0.75617684  0.07963886  0.31073693    -0.19900
C3035       C  0.75835697  0.06873407  0.30898280    -0.09600
C3036       C  0.76534396  0.06552026  0.30071211    -0.10100
C3037       C  0.76983263  0.07339468  0.29395626    -0.03100
C3038       C  0.76780020  0.08436067  0.29583280    -0.18200
H3039       H  0.78236273  0.13986392  0.31371319     0.10900
H3040       H  0.78325016  0.12086086  0.30884746     0.11000
H3041       H  0.74863144  0.11865194  0.31111326     0.10700
H3042       H  0.74777344  0.13760144  0.31609909     0.11800
H3043       H  0.77478800  0.10435466  0.30258058     0.11900
H3044       H  0.75211959  0.10109715  0.31161099     0.13800
H3045       H  0.75095787  0.08188832  0.31734815     0.10300
H3046       H  0.75485286  0.06279188  0.31432451     0.12400
H3047       H  0.77534523  0.07110542  0.28760697     0.09000
H3048       H  0.77154664  0.09027811  0.29064489     0.11700
C3049       C  0.71697337  0.95723514  0.21996347    -0.02900
C3050       C  0.72298323  0.96211973  0.22823828    -0.05500
C3051       C  0.72721207  0.97254015  0.22689788    -0.20600
C3052       C  0.72563492  0.97821997  0.21722384     0.25200
C3053       C  0.71978639  0.97320228  0.20889601    -0.18100
C3054       C  0.71551301  0.96287167  0.21026750    -0.08100
C3055       C  0.72935836  0.98963212  0.21623079    -0.18400
C3056       C  0.73207815  0.99399100  0.20665600    -0.23200
C3057       C  0.73439637  0.00563134  0.20464873     0.27200
C3058       C  0.73895083  0.00842392  0.19469056    -0.19900
C3059       C  0.73966124  0.01917678  0.19147035    -0.09600
C3060       C  0.73588611  0.02747641  0.19813707    -0.10100
C3061       C  0.73189906  0.02482854  0.20839672    -0.03100
C3062       C  0.73113008  0.01398387  0.21163587    -0.18200
H3063       H  0.72400118  0.95810343  0.23591148     0.10900
H3064       H  0.73155826  0.97625206  0.23349369     0.11000
H3065       H  0.71808234  0.97740720  0.20145307     0.10700
H3066       H  0.71080567  0.95936663  0.20380508     0.11800
H3067       H  0.72981355  0.99445547  0.22350619     0.11900
H3068       H  0.73246864  0.98870971  0.19968881     0.13800
H3069       H  0.74153756  0.00221339  0.18913420     0.10300
H3070       H  0.74273940  0.02099498  0.18351426     0.12400
H3071       H  0.72874040  0.03106580  0.21360727     0.09000
H3072       H  0.72741681  0.01219493  0.21930245     0.11700
C3073       C  0.70638642  0.91974503  0.23171537    -0.02900
C3074       C  0.71509868  0.91264454  0.23032949    -0.05500
C3075       C  0.71421432  0.90179120  0.23343524    -0.20600
C3076       C  0.70451600  0.89778075  0.23765453     0.25200
C3077       C  0.69596133  0.90493677  0.23937070    -0.18100
C3078       C  0.69691488  0.91577843  0.23650417    -0.08100
C3079       C  0.70328831  0.88610343  0.24003437    -0.18400
C3080       C  0.69440761  0.88060916  0.23703978    -0.23200
C3081       C  0.69303344  0.86886429  0.23885828     0.27200
C3082       C  0.68861433  0.86245229  0.23064822    -0.19900
C3083       C  0.68713172  0.85136329  0.23216819    -0.09600
C3084       C  0.68965267  0.84654115  0.24209047    -0.10100
C3085       C  0.69378364  0.85303418  0.25042585    -0.03100
C3086       C  0.69558656  0.86406948  0.24878396    -0.18200
H3087       H  0.72241022  0.91530485  0.22642657     0.10900
H3088       H  0.72093232  0.89640783  0.23207733     0.11000
H3089       H  0.68848221  0.90211310  0.24284917     0.10700
H3090       H  0.69009497  0.92104061  0.23781485     0.11800
H3091       H  0.71003409  0.88181716  0.24358403     0.11900
H3092       H  0.68821218  0.88472660  0.23243135     0.13800
H3093       H  0.68649386  0.86600824  0.22296737     0.10300
H3094       H  0.68395446  0.84656243  0.22560513     0.12400
H3095       H  0.69587908  0.84951870  0.25812998     0.09000
H3096       H  0.69882116  0.86888323  0.25530864     0.11700
C3097       C  0.80420947  0.96134396  0.26853628    -0.02900
C3098       C  0.81011889  0.96997369  0.26424970    -0.05500
C3099       C  0.80618135  0.98049024  0.26482314    -0.20600
C3100       C  0.79624252  0.98266941  0.26971468     0.25200
C3101       C  0.79008814  0.97396773  0.27364170    -0.18100
C3102       C  0.79405730  0.96339833  0.27305985    -0.08100
C3103       C  0.79339230  0.99413654  0.27179176    -0.18400
C3104       C  0.78354757  0.99766771  0.27465929    -0.23200
C3105       C  0.78174071  0.00880483  0.27875222     0.27200
C3106       C  0.77160726  0.01370626  0.27759869    -0.19900
C3107       C  0.76950577  0.02374752  0.28236708    -0.09600
C3108       C  0.77746820  0.02894219  0.28851108    -0.10100
C3109       C  0.78760913  0.02410800  0.28954507    -0.03100
C3110       C  0.78974698  0.01419193  0.28470797    -0.18200
H3111       H  0.81798656  0.96861343  0.26075644     0.10900
H3112       H  0.81112768  0.98701086  0.26179379     0.11000
H3113       H  0.78251882  0.97530943  0.27771191     0.10700
H3114       H  0.78945741  0.95692766  0.27666766     0.11800
H3115       H  0.79991533  0.99994714  0.27127362     0.11900
H3116       H  0.77668069  0.99227548  0.27427240     0.13800
H3117       H  0.76525461  0.00965591  0.27319332     0.10300
H3118       H  0.76153779  0.02720338  0.28167023     0.12400
H3119       H  0.79381715  0.02789154  0.29437803     0.09000
H3120       H  0.79752664  0.01053834  0.28610623     0.11700
C3121       C  0.72561448  0.93632602  0.23053845    -0.02900
C3122       C  0.73430421  0.93781926  0.22351944    -0.05500
C3123       C  0.74485222  0.93722283  0.22733670    -0.20600
C3124       C  0.74695436  0.93515512  0.23826529     0.25200
C3125       C  0.73818169  0.93334072  0.24524707    -0.18100
C3126       C  0.72760859  0.93388374  0.24137577    -0.08100
C3127       C  0.75833051  0.93578615  0.24201642    -0.18400
C3128       C  0.76174007  0.93330120  0.25202448    -0.23200
C3129       C  0.77300090  0.93512043  0.25569887     0.27200
C3130       C  0.77695791  0.92919770  0.26448459    -0.19900
C3131       C  0.78736446  0.93101038  0.26840760    -0.09600
C3132       C  0.79403033  0.93878721  0.26360912    -0.10100
C3133       C  0.79008372  0.94472409  0.25484315    -0.03100
C3134       C  0.77965697  0.94301596  0.25099881    -0.18200
H3135       H  0.73287878  0.93966536  0.21511393     0.10900
H3136       H  0.75140013  0.93865689  0.22176224     0.11000
H3137       H  0.73932893  0.93186172  0.25373952     0.10700
H3138       H  0.72095712  0.93278078  0.24689405     0.11800
H3139       H  0.76418262  0.93856765  0.23615897     0.11900
H3140       H  0.75624805  0.92969520  0.25775983     0.13800
H3141       H  0.77195964  0.92318506  0.26835754     0.10300
H3142       H  0.79014844  0.92646717  0.27530551     0.12400
H3143       H  0.79507746  0.95074813  0.25099758     0.09000
H3144       H  0.77681381  0.94806272  0.24449735     0.11700
C3145       C  0.81117713  0.92149085  0.26982661    -0.02900
C3146       C  0.81353727  0.91528204  0.27895823    -0.05500
C3147       C  0.81416449  0.90407455  0.27825150    -0.20600
C3148       C  0.81277343  0.89883720  0.26833351     0.25200
C3149       C  0.81004705  0.90502097  0.25920864    -0.18100
C3150       C  0.80919240  0.91628410  0.25997775    -0.08100
C3151       C  0.81437806  0.88696482  0.26792924    -0.18400
C3152       C  0.81863001  0.88178237  0.25937767    -0.23200
C3153       C  0.82137615  0.87004620  0.25927532     0.27200
C3154       C  0.82354581  0.86505359  0.24935333    -0.19900
C3155       C  0.82611867  0.85407726  0.24882515    -0.09600
C3156       C  0.82665598  0.84779876  0.25824137    -0.10100
C3157       C  0.82478116  0.85283793  0.26820451    -0.03100
C3158       C  0.82221876  0.86381273  0.26873746    -0.18200
H3159       H  0.81513739  0.91915467  0.28661768     0.10900
H3160       H  0.81617426  0.89950426  0.28540883     0.11000
H3161       H  0.80865670  0.90119428  0.25149558     0.10700
H3162       H  0.80743375  0.92095240  0.25282242     0.11800
H3163       H  0.81265670  0.88257501  0.27526620     0.11900
H3164       H  0.82038389  0.88636424  0.25213713     0.13800
H3165       H  0.82311015  0.86963693  0.24194060     0.10300
H3166       H  0.82751110  0.85047636  0.24100493     0.12400
H3167       H  0.82517034  0.84826841  0.27562450     0.09000
H3168       H  0.82101766  0.86730103  0.27661289     0.11700
C3169       C  0.77110184  0.31507893  0.14395232    -0.02900
C3170       C  0.78164891  0.31564893  0.13990957    -0.05500
C3171       C  0.78364251  0.31438699  0.12889055    -0.20600
C3172       C  0.77519204  0.31228995  0.12167193     0.25200
C3173       C  0.76459556  0.31200134  0.12563335    -0.18100
C3174       C  0.76257620  0.31342728  0.13665369    -0.08100
C3175       C  0.77777035  0.31066789  0.11007963    -0.18400
C3176       C  0.77211529  0.30407796  0.10349401    -0.23200
C3177       C  0.77487876  0.30206253  0.09193432     0.27200
C3178       C  0.76724676  0.29700864  0.08522071    -0.19900
C3179       C  0.76927594  0.29551047  0.07419790    -0.09600
C3180       C  0.77902017  0.29900445  0.06968448    -0.10100
C3181       C  0.78683200  0.30359335  0.07645531    -0.03100
C3182       C  0.78485561  0.30503161  0.08743724    -0.18200
H3183       H  0.78839825  0.31695757  0.14528186     0.10900
H3184       H  0.79186428  0.31478408  0.12602414     0.11000
H3185       H  0.75786126  0.31073669  0.12024276     0.10700
H3186       H  0.75434941  0.31298808  0.13948901     0.11800
H3187       H  0.78486976  0.31477602  0.10713828     0.11900
H3188       H  0.76509713  0.29995563  0.10668071     0.13800
H3189       H  0.75954272  0.29451312  0.08844539     0.10300
H3190       H  0.76303772  0.29210928  0.06913588     0.12400
H3191       H  0.79444501  0.30629905  0.07317370     0.09000
H3192       H  0.79119135  0.30854319  0.09224748     0.11700
C3193       C  0.74314504  0.21124526  0.05377008    -0.02900
C3194       C  0.73618927  0.21979880  0.05143083    -0.05500
C3195       C  0.73979405  0.23043465  0.05210782    -0.20600
C3196       C  0.75046568  0.23278578  0.05506580     0.25200
C3197       C  0.75736579  0.22415480  0.05772652    -0.18100
C3198       C  0.75369142  0.21348541  0.05712137    -0.08100
C3199       C  0.75396613  0.24429368  0.05474362    -0.18400
C3200       C  0.76399494  0.24790213  0.05687057    -0.23200
C3201       C  0.76717803  0.25940609  0.05552480     0.27200
C3202       C  0.77587167  0.26350894  0.06151144    -0.19900
C3203       C  0.77932970  0.27416455  0.06009373    -0.09600
C3204       C  0.77423066  0.28087697  0.05256546    -0.10100
C3205       C  0.76552870  0.27681346  0.04660527    -0.03100
C3206       C  0.76207137  0.26619118  0.04800229    -0.18200
H3207       H  0.72800517  0.21819819  0.04888193     0.10900
H3208       H  0.73426441  0.23685701  0.05005060     0.11000
H3209       H  0.76562896  0.22548253  0.06007280     0.10700
H3210       H  0.75916943  0.20694366  0.05890274     0.11800
H3211       H  0.74786810  0.25011807  0.05246220     0.11900
H3212       H  0.77011837  0.24242299  0.05977971     0.13800
H3213       H  0.78003056  0.25843377  0.06725970     0.10300
H3214       H  0.78615041  0.27710169  0.06466867     0.12400
H3215       H  0.76149893  0.28185499  0.04074260     0.09000
H3216       H  0.75560199  0.26327251  0.04294733     0.11700
C3217       C  0.74274512  0.19249494  0.07073251    -0.02900
C3218       C  0.73873021  0.20057994  0.07754305    -0.05500
C3219       C  0.73998712  0.19974109  0.08875369    -0.20600
C3220       C  0.74534837  0.19086981  0.09334002     0.25200
C3221       C  0.74959098  0.18295308  0.08642789    -0.18100
C3222       C  0.74831724  0.18378898  0.07529388    -0.08100
C3223       C  0.74567170  0.18963502  0.10529593    -0.18400
C3224       C  0.75291006  0.18334154  0.11041113    -0.23200
C3225       C  0.75298510  0.18124863  0.12222204     0.27200
C3226       C  0.76250425  0.17740351  0.12694784    -0.19900
C3227       C  0.76295484  0.17503062  0.13794339    -0.09600
C3228       C  0.75383673  0.17632770  0.14449724    -0.10100
C3229       C  0.74421827  0.17997247  0.13974453    -0.03100
C3230       C  0.74378311  0.18240500  0.12872641    -0.18200
H3231       H  0.73414321  0.20723008  0.07426766     0.10900
H3232       H  0.73652387  0.20589341  0.09387444     0.11000
H3233       H  0.75345927  0.17580471  0.08954140     0.10700
H3234       H  0.75136679  0.17737596  0.07022586     0.11800
H3235       H  0.73981902  0.19412849  0.10996555     0.11900
H3236       H  0.75936069  0.17969352  0.10580291     0.13800
H3237       H  0.76967555  0.17630885  0.12211741     0.10300
H3238       H  0.77049809  0.17225831  0.14132310     0.12400
H3239       H  0.73704458  0.18107012  0.14456401     0.09000
H3240       H  0.73620178  0.18502769  0.12534508     0.11700
C3241       C  0.77987159  0.29033288  0.03014877    -0.02900
C3242       C  0.78534035  0.28059614  0.02846395    -0.05500
C3243       C  0.78633967  0.27635651  0.01804313    -0.20600
C3244       C  0.78191942  0.28178419  0.00913005     0.25200
C3245       C  0.77581719  0.29116305  0.01099145    -0.18100
C3246       C  0.77494353  0.29544904  0.02136593    -0.08100
C3247       C  0.78439889  0.27780538  0.99804974    -0.18400
C3248       C  0.78426498  0.28427392  0.98931141    -0.23200
C3249       C  0.78887560  0.28124678  0.97867826     0.27200
C3250       C  0.79305298  0.28951815  0.97221084    -0.19900
C3251       C  0.79835409  0.28714795  0.96260658    -0.09600
C3252       C  0.79938491  0.27646416  0.95909010    -0.10100
C3253       C  0.79474905  0.26816332  0.96522342    -0.03100
C3254       C  0.78954509  0.27052660  0.97498312    -0.18200
H3255       H  0.78930439  0.27656744  0.03510961     0.10900
H3256       H  0.79099840  0.26907914  0.01688511     0.11000
H3257       H  0.77186678  0.29537155  0.00447385     0.10700
H3258       H  0.77060848  0.30292910  0.02251488     0.11800
H3259       H  0.78762162  0.26971695  0.99730447     0.11900
H3260       H  0.78194795  0.29263946  0.99023038     0.13800
H3261       H  0.79258123  0.29784050  0.97480224     0.10300
H3262       H  0.80184353  0.29367851  0.95798567     0.12400
H3263       H  0.79549553  0.25985466  0.96266923     0.09000
H3264       H  0.78617591  0.26397513  0.97963938     0.11700
C3265       C  0.82711531  0.25457730  0.84852691    -0.02900
C3266       C  0.82892067  0.24539419  0.85491839    -0.05500
C3267       C  0.82740493  0.24575720  0.86607498    -0.20600
C3268       C  0.82386795  0.25523228  0.87110490     0.25200
C3269       C  0.82220732  0.26448871  0.86476680    -0.18100
C3270       C  0.82383335  0.26416180  0.85359966    -0.08100
C3271       C  0.82244086  0.25529014  0.88300282    -0.18400
C3272       C  0.81530972  0.26168041  0.88810347    -0.23200
C3273       C  0.81413738  0.26211678  0.90003963     0.27200
C3274       C  0.80453157  0.26611383  0.90446489    -0.19900
C3275       C  0.80351201  0.26765612  0.91559233    -0.09600
C3276       C  0.81213025  0.26530693  0.92251697    -0.10100
C3277       C  0.82164571  0.26107029  0.91814488    -0.03100
C3278       C  0.82264979  0.25946015  0.90704177    -0.18200
H3279       H  0.83144447  0.23787399  0.85129233     0.10900
H3280       H  0.82885152  0.23855247  0.87078168     0.11000
H3281       H  0.81978810  0.27202398  0.86841944     0.10700
H3282       H  0.82236916  0.27137709  0.84892340     0.11800
H3283       H  0.82710542  0.24951620  0.88761264     0.11900
H3284       H  0.80992726  0.26667174  0.88335279     0.13800
H3285       H  0.79789287  0.26833368  0.89925914     0.10300
H3286       H  0.79620539  0.27123905  0.91869432     0.12400
H3287       H  0.82846582  0.25935700  0.92330916     0.09000
H3288       H  0.83028598  0.25664084  0.90397401     0.11700
C3289       C  0.71471896  0.21969942  0.96148446    -0.02900
C3290       C  0.70740402  0.22301848  0.96940043    -0.05500
C3291       C  0.71020783  0.22274266  0.98028157    -0.20600
C3292       C  0.72036276  0.21902630  0.98356456     0.25200
C3293       C  0.72791922  0.21616566  0.97557987    -0.18100
C3294       C  0.72511126  0.21654611  0.96461674    -0.08100
C3295       C  0.72207330  0.21713911  0.99531087    -0.18400
C3296       C  0.73149731  0.21441936  0.99996738    -0.23200
C3297       C  0.73215355  0.21075491  0.01139021     0.27200
C3298       C  0.74178140  0.21204048  0.01721522    -0.19900
C3299       C  0.74281531  0.20781015  0.02765117    -0.09600
C3300       C  0.73428297  0.20206804  0.03235060    -0.10100
C3301       C  0.72465252  0.20086106  0.02658067    -0.03100
C3302       C  0.72357162  0.20516528  0.01625024    -0.18200
H3303       H  0.69933906  0.22547617  0.96716933     0.10900
H3304       H  0.70421782  0.22500204  0.98619694     0.11000
H3305       H  0.73578080  0.21311750  0.97771377     0.10700
H3306       H  0.73083166  0.21380309  0.95864315     0.11800
H3307       H  0.71498001  0.21768448  0.00038272     0.11900
H3308       H  0.73890089  0.21468870  0.99536480     0.13800
H3309       H  0.74856573  0.21616304  0.01361071     0.10300
H3310       H  0.75041209  0.20862965  0.03185464     0.12400
H3311       H  0.71802033  0.19633824  0.02999044     0.09000
H3312       H  0.71615725  0.20365616  0.01192743     0.11700
C3313       C  0.79352288  0.26240153  0.93912590    -0.02900
C3314       C  0.79376420  0.25155027  0.93595687    -0.05500
C3315       C  0.78419296  0.24570994  0.93476148    -0.20600
C3316       C  0.77418450  0.25058642  0.93674437     0.25200
C3317       C  0.77397985  0.26159877  0.93955233    -0.18100
C3318       C  0.78355323  0.26740451  0.94077351    -0.08100
C3319       C  0.76419025  0.24397218  0.93571432    -0.18400
C3320       C  0.75481166  0.24663706  0.94049694    -0.23200
C3321       C  0.74472363  0.24011282  0.94006852     0.27200
C3322       C  0.73628693  0.24301837  0.94700981    -0.19900
C3323       C  0.72667136  0.23719794  0.94714295    -0.09600
C3324       C  0.72523304  0.22828519  0.94035687    -0.10100
C3325       C  0.73350775  0.22546731  0.93319678    -0.03100
C3326       C  0.74317168  0.23132075  0.93302568    -0.18200
H3327       H  0.80139047  0.24756128  0.93460549     0.10900
H3328       H  0.78461884  0.23730132  0.93246064     0.11000
H3329       H  0.76648365  0.26584912  0.94069848     0.10700
H3330       H  0.78319376  0.27584424  0.94295194     0.11800
H3331       H  0.76483735  0.23643479  0.93135618     0.11900
H3332       H  0.75453335  0.25379998  0.94548614     0.13800
H3333       H  0.73716198  0.24979292  0.95244435     0.10300
H3334       H  0.72033836  0.23962360  0.95261038     0.12400
H3335       H  0.73256827  0.21859292  0.92790970     0.09000
H3336       H  0.74931175  0.22889871  0.92737016     0.11700
C3337       C  0.71014484  0.22124306  0.92135695    -0.02900
C3338       C  0.71200356  0.21307894  0.91379331    -0.05500
C3339       C  0.71031383  0.21495436  0.90281481    -0.20600
C3340       C  0.70645718  0.22494994  0.89915797     0.25200
C3341       C  0.70501800  0.23329704  0.90674550    -0.18100
C3342       C  0.70685433  0.23143323  0.91775263    -0.08100
C3343       C  0.70391345  0.22610422  0.88744216    -0.18400
C3344       C  0.69755235  0.23384316  0.88320315    -0.23200
C3345       C  0.69478354  0.23444583  0.87150494     0.27200
C3346       C  0.69204790  0.24446203  0.86701673    -0.19900
C3347       C  0.68960791  0.24540234  0.85603497    -0.09600
C3348       C  0.68973419  0.23630373  0.84926932    -0.10100
C3349       C  0.69209462  0.22620665  0.85383641    -0.03100
C3350       C  0.69455477  0.22527314  0.86481662    -0.18200
H3351       H  0.71432831  0.20509757  0.91644403     0.10900
H3352       H  0.71158034  0.20839625  0.89719606     0.11000
H3353       H  0.70232443  0.24120439  0.90430134     0.10700
H3354       H  0.70515786  0.23776713  0.92350929     0.11800
H3355       H  0.70722701  0.22001713  0.88212014     0.11900
H3356       H  0.69431822  0.24009848  0.88836227     0.13800
H3357       H  0.69201465  0.25163939  0.87198733     0.10300
H3358       H  0.68782597  0.25330808  0.85281040     0.12400
H3359       H  0.69217099  0.21901427  0.84889564     0.09000
H3360       H  0.69618786  0.21733829  0.86802051     0.11700
C3361       C  0.81120590  0.23285552  0.56833711    -0.02900
C3362       C  0.80367530  0.22800583  0.57520854    -0.05500
C3363       C  0.80453079  0.22931915  0.58640947    -0.20600
C3364       C  0.81285661  0.23556901  0.59092624     0.25200
C3365       C  0.82014686  0.24071150  0.58393771    -0.18100
C3366       C  0.81929953  0.23937162  0.57280889    -0.08100
C3367       C  0.81423033  0.23583598  0.60287676    -0.18400
C3368       C  0.82021852  0.24328421  0.60808994    -0.23200
C3369       C  0.82228361  0.24321163  0.61991356     0.27200
C3370       C  0.82535840  0.25287421  0.62493206    -0.19900
C3371       C  0.82755300  0.25320059  0.63597614    -0.09600
C3372       C  0.82685388  0.24381819  0.64228691    -0.10100
C3373       C  0.82403096  0.23406989  0.63722764    -0.03100
C3374       C  0.82177840  0.23375533  0.62616239    -0.18200
H3375       H  0.79750882  0.22274844  0.57198447     0.10900
H3376       H  0.79885574  0.22518498  0.59158067     0.11000
H3377       H  0.82685710  0.24536006  0.58696045     0.10700
H3378       H  0.82525301  0.24314388  0.56767165     0.11800
H3379       H  0.81008657  0.22968655  0.60750220     0.11900
H3380       H  0.82354773  0.25000679  0.60361997     0.13800
H3381       H  0.82595063  0.26025043  0.62030350     0.10300
H3382       H  0.82969685  0.26085316  0.63958639     0.12400
H3383       H  0.82343065  0.22669111  0.64184305     0.09000
H3384       H  0.81978850  0.22607985  0.62254244     0.11700
C3385       C  0.71981591  0.25460530  0.55055725    -0.02900
C3386       C  0.72244302  0.24551797  0.54436847    -0.05500
C3387       C  0.73269834  0.24092090  0.54504960    -0.20600
C3388       C  0.74057924  0.24536422  0.55185591     0.25200
C3389       C  0.73783096  0.25431028  0.55827744    -0.18100
C3390       C  0.72757065  0.25889962  0.55758178    -0.08100
C3391       C  0.75153430  0.24048008  0.55198350    -0.18400
C3392       C  0.76047710  0.24602459  0.55470945    -0.23200
C3393       C  0.77158057  0.24161069  0.55380822     0.27200
C3394       C  0.78018346  0.24887111  0.55259106    -0.19900
C3395       C  0.79071257  0.24512739  0.55130972    -0.09600
C3396       C  0.79284730  0.23406273  0.55134970    -0.10100
C3397       C  0.78438763  0.22676408  0.55295893    -0.03100
C3398       C  0.77381592  0.23048378  0.55416212    -0.18200
H3399       H  0.71653117  0.24198144  0.53901615     0.10900
H3400       H  0.73453882  0.23397127  0.54010359     0.11000
H3401       H  0.74353136  0.25777032  0.56388615     0.10700
H3402       H  0.72571244  0.26589902  0.56243917     0.11800
H3403       H  0.75230691  0.23234254  0.54888101     0.11900
H3404       H  0.75978029  0.25446983  0.55685080     0.13800
H3405       H  0.77872079  0.25747147  0.55240263     0.10300
H3406       H  0.79720658  0.25083201  0.55014186     0.12400
H3407       H  0.78599136  0.21819323  0.55316914     0.09000
H3408       H  0.76747615  0.22464620  0.55543606     0.11700
C3409       C  0.70457288  0.26098816  0.56954651    -0.02900
C3410       C  0.70726176  0.25083379  0.57371099    -0.05500
C3411       C  0.70697206  0.24899988  0.58485177    -0.20600
C3412       C  0.70390730  0.25725041  0.59198292     0.25200
C3413       C  0.70191759  0.26759810  0.58779014    -0.18100
C3414       C  0.70214405  0.26939556  0.57669506    -0.08100
C3415       C  0.70266400  0.25477400  0.60366497    -0.18400
C3416       C  0.69608787  0.26043710  0.61020096    -0.23200
C3417       C  0.69457854  0.25819959  0.62187053     0.27200
C3418       C  0.69111471  0.26664655  0.62853758    -0.19900
C3419       C  0.68954238  0.26501044  0.63955777    -0.09600
C3420       C  0.69116342  0.25480312  0.64414605    -0.10100
C3421       C  0.69437450  0.24624497  0.63745095    -0.03100
C3422       C  0.69611763  0.24792569  0.62642182    -0.18200
H3423       H  0.70903495  0.24419161  0.56834068     0.10900
H3424       H  0.70869565  0.24099782  0.58787096     0.11000
H3425       H  0.70004494  0.27432145  0.59300130     0.10700
H3426       H  0.70014083  0.27732471  0.57364985     0.11800
H3427       H  0.70704127  0.24790662  0.60682874     0.11900
H3428       H  0.69162832  0.26721450  0.60696790     0.13800
H3429       H  0.68974977  0.27460451  0.62522296     0.10300
H3430       H  0.68700649  0.27174386  0.64449023     0.12400
H3431       H  0.69569097  0.23828449  0.64077013     0.09000
H3432       H  0.69848973  0.24114230  0.62149753     0.11700
C3433       C  0.72766664  0.28610877  0.46057126    -0.02900
C3434       C  0.73599685  0.27970496  0.46475569    -0.05500
C3435       C  0.73479384  0.27453456  0.47472151    -0.20600
C3436       C  0.72522351  0.27559104  0.48063673     0.25200
C3437       C  0.71685866  0.28192985  0.47636692    -0.18100
C3438       C  0.71809384  0.28714106  0.46646995    -0.08100
C3439       C  0.72446822  0.27082057  0.49161187    -0.18400
C3440       C  0.71502058  0.26778087  0.49597679    -0.23200
C3441       C  0.71355242  0.26450953  0.50742009     0.27200
C3442       C  0.70395547  0.25926596  0.51025554    -0.19900
C3443       C  0.70126423  0.25769720  0.52105549    -0.09600
C3444       C  0.70811811  0.26131174  0.52928716    -0.10100
C3445       C  0.71802423  0.26599346  0.52652372    -0.03100
C3446       C  0.72072654  0.26760724  0.51567277    -0.18200
H3447       H  0.74357865  0.27901872  0.46052660     0.10900
H3448       H  0.74141461  0.26983976  0.47790567     0.11000
H3449       H  0.70950655  0.28324494  0.48084019     0.10700
H3450       H  0.71161674  0.29216306  0.46349490     0.11800
H3451       H  0.73187123  0.26983629  0.49614124     0.11900
H3452       H  0.70785863  0.26788071  0.49095640     0.13800
H3453       H  0.69827286  0.25681823  0.50409850     0.10300
H3454       H  0.69354954  0.25412071  0.52300272     0.12400
H3455       H  0.72332083  0.26908160  0.53273243     0.09000
H3456       H  0.72808799  0.27188697  0.51385683     0.11700
C3457       C  0.74374944  0.31082427  0.34848429    -0.02900
C3458       C  0.73384142  0.30702830  0.35239945    -0.05500
C3459       C  0.73262446  0.30427030  0.36326017    -0.20600
C3460       C  0.74122535  0.30530312  0.37054595     0.25200
C3461       C  0.75113350  0.30924911  0.36665925    -0.18100
C3462       C  0.75235850  0.31197724  0.35576803    -0.08100
C3463       C  0.73947222  0.30196029  0.38198530    -0.18400
C3464       C  0.74607658  0.30452941  0.39023259    -0.23200
C3465       C  0.74360783  0.30198249  0.40170408     0.27200
C3466       C  0.74765980  0.30885121  0.40972037    -0.19900
C3467       C  0.74494019  0.30729881  0.42052310    -0.09600
C3468       C  0.73830842  0.29867995  0.42361448    -0.10100
C3469       C  0.73465482  0.29144970  0.41571137    -0.03100
C3470       C  0.73726633  0.29308532  0.40483100    -0.18200
H3471       H  0.72707536  0.30590373  0.34700884     0.10900
H3472       H  0.72491487  0.30122473  0.36596519     0.11000
H3473       H  0.75807128  0.31000035  0.37185746     0.10700
H3474       H  0.76013723  0.31477593  0.35300695     0.11800
H3475       H  0.73204825  0.29769662  0.38374489     0.11900
H3476       H  0.75308431  0.30951590  0.38876017     0.13800
H3477       H  0.75264017  0.31569053  0.40757554     0.10300
H3478       H  0.74784905  0.31298451  0.42647723     0.12400
H3479       H  0.72944116  0.28480386  0.41788841     0.09000
H3480       H  0.73424531  0.28743958  0.39891197     0.11700
C3481       C  0.78190084  0.20422943  0.46106873    -0.02900
C3482       C  0.77303797  0.20963006  0.46553580    -0.05500
C3483       C  0.77394950  0.21475140  0.47557307    -0.20600
C3484       C  0.78378313  0.21474027  0.48116912     0.25200
C3485       C  0.79269570  0.20953352  0.47651811    -0.18100
C3486       C  0.79173478  0.20429805  0.46661360    -0.08100
C3487       C  0.78443625  0.21929397  0.49223512    -0.18400
C3488       C  0.79358154  0.22368409  0.49607292    -0.23200
C3489       C  0.79558879  0.22643797  0.50756504     0.27200
C3490       C  0.80456872  0.23285205  0.50997694    -0.19900
C3491       C  0.80811253  0.23401910  0.52057696    -0.09600
C3492       C  0.80278252  0.22877354  0.52905462    -0.10100
C3493       C  0.79342193  0.22284948  0.52678229    -0.03100
C3494       C  0.78982431  0.22169481  0.51612009    -0.18200
H3495       H  0.76531392  0.20949693  0.46148909     0.10900
H3496       H  0.76693955  0.21858000  0.47905283     0.11000
H3497       H  0.80030886  0.20906822  0.48073751     0.10700
H3498       H  0.79863655  0.20008092  0.46336892     0.11800
H3499       H  0.77734065  0.21880524  0.49729853     0.11900
H3500       H  0.80021653  0.22497995  0.49052301     0.13800
H3501       H  0.80918352  0.23657019  0.50357372     0.10300
H3502       H  0.81535844  0.23863566  0.52210648     0.12400
H3503       H  0.78934572  0.21845291  0.53309058     0.09000
H3504       H  0.78300541  0.21649451  0.51458955     0.11700
C3505       C  0.77227681  0.21122439  0.43929166    -0.02900
C3506       C  0.77884580  0.22027380  0.44088880    -0.05500
C3507       C  0.77483198  0.23063003  0.43913872    -0.20600
C3508       C  0.76412611  0.23218028  0.43586142     0.25200
C3509       C  0.75764334  0.22305203  0.43388295    -0.18100
C3510       C  0.76170047  0.21266449  0.43561692    -0.08100
C3511       C  0.76009353  0.24343509  0.43483714    -0.18400
C3512       C  0.74961163  0.24614585  0.43558381    -0.23200
C3513       C  0.74559142  0.25746458  0.43610303     0.27200
C3514       C  0.73499586  0.25919974  0.43963645    -0.19900
C3515       C  0.73101901  0.26963883  0.44098208    -0.09600
C3516       C  0.73756043  0.27860262  0.43885908    -0.10100
C3517       C  0.74800063  0.27695123  0.43491561    -0.03100
C3518       C  0.75198058  0.26649793  0.43348396    -0.18200
H3519       H  0.78707091  0.21928994  0.44360138     0.10900
H3520       H  0.78004473  0.23747703  0.44061196     0.11000
H3521       H  0.74946880  0.22385664  0.43100875     0.10700
H3522       H  0.75655717  0.20574414  0.43427642     0.11800
H3523       H  0.76614593  0.24971089  0.43444104     0.11900
H3524       H  0.74369084  0.23982740  0.43676047     0.13800
H3525       H  0.72983423  0.25244408  0.44161137     0.10300
H3526       H  0.72289004  0.27074740  0.44390325     0.12400
H3527       H  0.75317300  0.28376838  0.43322441     0.09000
H3528       H  0.76006148  0.26562634  0.43042008     0.11700
C3529       C  0.77355398  0.19127635  0.42359743    -0.02900
C3530       C  0.77531161  0.19990517  0.41647202    -0.05500
C3531       C  0.77330858  0.19869965  0.40542243    -0.20600
C3532       C  0.76987728  0.18876060  0.40123939     0.25200
C3533       C  0.76794460  0.18019394  0.40835762    -0.18100
C3534       C  0.76970883  0.18146313  0.41939956    -0.08100
C3535       C  0.76825647  0.18750195  0.38945817    -0.18400
C3536       C  0.77087168  0.17837782  0.38418783    -0.23200
C3537       C  0.76943389  0.17707711  0.37238877     0.27200
C3538       C  0.77697050  0.17106751  0.36648829    -0.19900
C3539       C  0.77579678  0.16974730  0.35534049    -0.09600
C3540       C  0.76684387  0.17408752  0.34997635    -0.10100
C3541       C  0.75915003  0.17984910  0.35593163    -0.03100
C3542       C  0.76048030  0.18142573  0.36701177    -0.18200
H3543       H  0.77862000  0.20745081  0.41930860     0.10900
H3544       H  0.77482501  0.20542305  0.40007179     0.11000
H3545       H  0.76502857  0.17251717  0.40539783     0.10700
H3546       H  0.76819643  0.17467480  0.42466403     0.11800
H3547       H  0.76546905  0.19445153  0.38493211     0.11900
H3548       H  0.77474684  0.17186091  0.38855648     0.13800
H3549       H  0.78387596  0.16755275  0.37048954     0.10300
H3550       H  0.78181976  0.16525167  0.35092721     0.12400
H3551       H  0.75220486  0.18332717  0.35196769     0.09000
H3552       H  0.75442092  0.18589849  0.37139134     0.11700
loop_ 
_geom_bond_atom_site_label_1 
_geom_bond_atom_site_label_2 
_geom_bond_distance 
_geom_bond_site_symmetry_2 
_ccdc_geom_bond_type 
N1            C5   1.358       .  A
N1            C2   1.362       .  A
N1         C3505   1.440       .  S
C2            C3   1.386       .  A
C2         C3529   1.489       .  S
C3            C4   1.374       .  A
C3            H6   1.082       .  S
C4            C5   1.380       .  A
C4            H7   1.082       .  S
C5         C3481   1.481       .  S
N8           C12   1.361       .  A
N8            C9   1.360       .  A
N8         C3516   1.441       .  S
C9           C10   1.383       .  A
C9         C3468   1.483       .  S
C10          C11   1.374       .  A
C10          H13   1.082       .  S
C11          C12   1.383       .  A
C11          H14   1.082       .  S
C12        C3433   1.485       .  S
N15          C19   1.360       .  A
N15          C16   1.360       .  A
N15        C3385   1.443       .  S
C16          C17   1.382       .  A
C16        C3409   1.480       .  S
C17          C18   1.372       .  A
C17          H20   1.082       .  S
C18          C19   1.383       .  A
C18          H21   1.082       .  S
C19        C3444   1.481       .  S
N22          C26   1.359       .  A
N22          C23   1.359       .  A
N22        C3396   1.436       .  S
C23          C24   1.383       .  A
C23        C3361   1.482       .  S
C24          C25   1.372       .  A
C24          H27   1.082       .  S
C25          C26   1.383       .  A
C25          H28   1.082       .  S
C26        C3492   1.483       .  S
N29          C33   1.361       .  A
N29          C30   1.360       .  A
N29        C3324   1.442       .  S
C30          C31   1.381       .  A
C30        C3337   1.477       .  S
C31          C32   1.373       .  A
C31          H34   1.082       .  S
C32          C33   1.383       .  A
C32          H35   1.082       .  S
C33        C3289   1.483       .  S
N36          C40   1.359       .  A
N36          C37   1.360       .  A
N36        C3313   1.441       .  S
C37          C38   1.383       .  A
C37        C3276   1.483       .  S
C38          C39   1.374       .  A
C38          H41   1.082       .  S
C39          C40   1.382       .  A
C39          H42   1.082       .  S
C40        C3252   1.481       .  S
N43          C47   1.359       .  A
N43          C44   1.359       .  A
N43        C3193   1.439       .  S
C44          C45   1.384       .  A
C44        C3217   1.483       .  S
C45          C46   1.374       .  A
C45          H48   1.082       .  S
C46          C47   1.381       .  A
C46          H49   1.082       .  S
C47        C3300   1.482       .  S
N50          C54   1.360       .  A
N50          C51   1.361       .  A
N50        C3204   1.442       .  S
C51          C52   1.384       .  A
C51        C3180   1.485       .  S
C52          C53   1.373       .  A
C52          H55   1.082       .  S
C53          C54   1.381       .  A
C53          H56   1.082       .  S
C54        C3241   1.482       .  S
N57          C61   1.362       .  A
N57          C58   1.360       .  A
N57        C3132   1.443       .  S
C58          C59   1.381       .  A
C58        C3145   1.480       .  S
C59          C60   1.373       .  A
C59          H62   1.082       .  S
C60          C61   1.383       .  A
C60          H63   1.082       .  S
C61        C3097   1.486       .  S
N64          C68   1.361       .  A
N64          C65   1.362       .  A
N64        C3121   1.437       .  S
C65          C66   1.385       .  A
C65        C3073   1.493       .  S
C66          C67   1.374       .  A
C66          H69   1.082       .  S
C67          C68   1.382       .  A
C67          H70   1.082       .  S
C68        C3049   1.490       .  S
N71          C75   1.359       .  A
N71          C72   1.359       .  A
N71        C3012   1.440       .  S
C72          C73   1.383       .  A
C72        C3036   1.481       .  S
C73          C74   1.374       .  A
C73          H76   1.082       .  S
C74          C75   1.383       .  A
C74          H77   1.082       .  S
C75        C3108   1.482       .  S
N78          C82   1.362       .  A
N78          C79   1.363       .  A
N78        C3001   1.440       .  S
C79          C80   1.384       .  A
C79        C2977   1.489       .  S
C80          C81   1.372       .  A
C80          H83   1.082       .  S
C81          C82   1.382       .  A
C81          H84   1.082       .  S
C82        C3060   1.488       .  S
O85         Ni93   1.920       .  S
O85          C95   1.282       .  A
O86         Ni93   1.923       .  S
O86          C96   1.283       .  A
O87         Ni93   1.923       .  S
O87          C97   1.282       .  A
O88         Ni93   1.916       .  S
O88          C98   1.282       .  A
O89         Ni94   1.922       .  S
O89          C98   1.283       .  A
O90         Ni94   1.922       .  S
O90          C97   1.283       .  A
O91         Ni94   1.926       .  S
O91          C96   1.283       .  A
O92         Ni94   1.925       .  S
O92          C95   1.283       .  A
Ni93        Ni94   2.385       .  S
C95        C2929   1.487       .  S
C96        C2905   1.487       .  S
C97        C3169   1.487       .  S
C98        C2964   1.484       .  S
O99        Ni107   1.928       .  S
O99         C109   1.284       .  A
O100       Ni107   1.928       .  S
O100        C110   1.284       .  A
O101       Ni107   1.920       .  S
O101        C111   1.282       .  A
O102       Ni107   1.916       .  S
O102        C112   1.281       .  A
O103       Ni108   1.924       .  S
O103        C112   1.283       .  A
O104       Ni108   1.925       .  S
O104        C111   1.284       .  A
O105       Ni108   1.916       .  S
O105        C110   1.281       .  A
O106       Ni108   1.910       .  S
O106        C109   1.280       .  A
Ni107      Ni108   2.385       .  S
C109       C2881   1.482       .  S
C110       C2857   1.487       .  S
C111       C3457   1.488       .  S
C112       C2953   1.483       .  S
O113       Ni121   1.918       .  S
O113        C123   1.282       .  A
O114       Ni121   1.921       .  S
O114        C124   1.282       .  A
O115       Ni121   1.926       .  S
O115        C125   1.283       .  A
O116       Ni121   1.922       .  S
O116        C126   1.283       .  A
O117       Ni122   1.923       .  S
O117        C126   1.283       .  A
O118       Ni122   1.925       .  S
O118        C125   1.283       .  A
O119       Ni122   1.919       .  S
O119        C124   1.282       .  A
O120       Ni122   1.916       .  S
O120        C123   1.282       .  A
Ni121      Ni122   2.385       .  S
C123       C2833   1.481       .  S
C124       C3228   1.485       .  S
C125       C2988   1.492       .  S
C126       C2940   1.487       .  S
O127       Ni135   1.921       .  S
O127        C137   1.282       .  A
O128       Ni135   1.927       .  S
O128        C138   1.284       .  A
O129       Ni135   1.918       .  S
O129        C139   1.281       .  A
O130       Ni135   1.915       .  S
O130        C140   1.281       .  A
O131       Ni136   1.919       .  S
O131        C140   1.282       .  A
O132       Ni136   1.923       .  S
O132        C139   1.282       .  A
O133       Ni136   1.917       .  S
O133        C138   1.282       .  A
O134       Ni136   1.919       .  S
O134        C137   1.282       .  A
Ni135      Ni136   2.386       .  S
C137       C2892   1.484       .  S
C138       C3025   1.488       .  S
C139       C3540   1.478       .  S
C140       C2844   1.481       .  S
N141        C145   1.361       .  A
N141        C142   1.364       .  A
N141       C2809   1.440       .  S
C142        C143   1.388       .  A
C142       C2916   1.496       .  S
C143        C144   1.372       .  A
C143        H146   1.082       .  S
C144        C145   1.378       .  A
C144        H147   1.082       .  S
C145       C2785   1.485       .  S
N148        C152   1.360       .  A
N148        C149   1.361       .  A
N148       C2820   1.440       .  S
C149        C150   1.381       .  A
C149       C2868   1.482       .  S
C150        C151   1.372       .  A
C150        H153   1.082       .  S
C151        C152   1.384       .  A
C151        H154   1.082       .  S
C152       C2761   1.484       .  S
N155        C159   1.359       .  A
N155        C156   1.363       .  A
N155       C2713   1.439       .  S
C156        C157   1.387       .  A
C156       C2737   1.491       .  S
C157        C158   1.373       .  A
C157        H160   1.082       .  S
C158        C159   1.378       .  A
C158        H161   1.082       .  S
C159       C2796   1.480       .  S
N162        C166   1.362       .  A
N162        C163   1.360       .  A
N162       C2724   1.441       .  S
C163        C164   1.381       .  A
C163       C2689   1.484       .  S
C164        C165   1.375       .  A
C164        H167   1.082       .  S
C165        C166   1.385       .  A
C165        H168   1.082       .  S
C166       C2772   1.489       .  S
O169       Ni177   1.914       .  S
O169        C179   1.281       .  A
O170       Ni177   1.917       .  S
O170        C180   1.282       .  A
O171       Ni177   1.924       .  S
O171        C181   1.282       .  A
O172       Ni177   1.923       .  S
O172        C182   1.283       .  A
O173       Ni178   1.921       .  S
O173        C182   1.282       .  A
O174       Ni178   1.924       .  S
O174        C181   1.283       .  A
O175       Ni178   1.933       .  S
O175        C180   1.285       .  A
O176       Ni178   1.925       .  S
O176        C179   1.283       .  A
Ni177      Ni178   2.385       .  S
C179       C2665   1.484       .  S
C180       C2617   1.491       .  S
C181       C3084   1.484       .  S
C182       C2641   1.487       .  S
O183       Ni191   1.921       .  S
O183        C193   1.282       .  A
O184       Ni191   1.926       .  S
O184        C194   1.283       .  A
O185       Ni191   1.928       .  S
O185        C195   1.284       .  A
O186       Ni191   1.921       .  S
O186        C196   1.282       .  A
O187       Ni192   1.919       .  S
O187        C196   1.282       .  A
O188       Ni192   1.921       .  S
O188        C195   1.282       .  A
O189       Ni192   1.921       .  S
O189        C194   1.282       .  A
O190       Ni192   1.918       .  S
O190        C193   1.282       .  A
Ni191      Ni192   2.385       .  S
C193       C2580   1.484       .  S
C194       C2748   1.484       .  S
C195       C2545   1.490       .  S
C196       C2593   1.484       .  S
O197       Ni205   1.915       .  S
O197        C207   1.281       .  A
O198       Ni205   1.919       .  S
O198        C208   1.282       .  A
O199       Ni205   1.924       .  S
O199        C209   1.283       .  A
O200       Ni205   1.923       .  S
O200        C210   1.282       .  A
O201       Ni206   1.923       .  S
O201        C210   1.283       .  A
O202       Ni206   1.925       .  S
O202        C209   1.283       .  A
O203       Ni206   1.927       .  S
O203        C208   1.284       .  A
O204       Ni206   1.923       .  S
O204        C207   1.283       .  A
Ni205      Ni206   2.384       .  S
C207       C2604   1.484       .  S
C208       C2521   1.488       .  S
C209       C2700   1.490       .  S
C210       C2652   1.488       .  S
O211       Ni219   1.923       .  S
O211        C221   1.283       .  A
O212       Ni219   1.926       .  S
O212        C222   1.283       .  A
O213       Ni219   1.924       .  S
O213        C223   1.283       .  A
O214       Ni219   1.919       .  S
O214        C224   1.282       .  A
O215       Ni220   1.920       .  S
O215        C224   1.282       .  A
O216       Ni220   1.921       .  S
O216        C223   1.282       .  A
O217       Ni220   1.916       .  S
O217        C222   1.282       .  A
O218       Ni220   1.914       .  S
O218        C221   1.281       .  A
Ni219      Ni220   2.385       .  S
C221       C2676   1.483       .  S
C222       C2497   1.485       .  S
C223       C3156   1.488       .  S
C224       C2569   1.484       .  S
N225        C229   1.360       .  A
N225        C226   1.359       .  A
N225       C2449   1.441       .  S
C226        C227   1.383       .  A
C226       C2473   1.483       .  S
C227        C228   1.375       .  A
C227        H230   1.082       .  S
C228        C229   1.382       .  A
C228        H231   1.082       .  S
C229       C2425   1.486       .  S
N232        C236   1.362       .  A
N232        C233   1.361       .  A
N232       C2460   1.438       .  S
C233        C234   1.382       .  A
C233       C2412   1.488       .  S
C234        C235   1.374       .  A
C234        H237   1.082       .  S
C235        C236   1.384       .  A
C235        H238   1.082       .  S
C236       C2388   1.492       .  S
N239        C243   1.361       .  A
N239        C240   1.362       .  A
N239       C2353   1.440       .  S
C240        C241   1.383       .  A
C240       C2532   1.488       .  S
C241        C242   1.374       .  A
C241        H244   1.082       .  S
C242        C243   1.383       .  A
C242        H245   1.082       .  S
C243       C2377   1.487       .  S
N246        C250   1.361       .  A
N246        C247   1.362       .  A
N246       C2364   1.440       .  S
C247        C248   1.384       .  A
C247       C2628   1.487       .  S
C248        C249   1.373       .  A
C248        H251   1.082       .  S
C249        C250   1.382       .  A
C249        H252   1.082       .  S
C250       C2436   1.487       .  S
N253        C257   1.360       .  A
N253        C254   1.359       .  A
N253       C2329   1.441       .  S
C254        C255   1.382       .  A
C254       C2556   1.480       .  S
C255        C256   1.375       .  A
C255        H258   1.082       .  S
C256        C257   1.382       .  A
C256        H259   1.082       .  S
C257       C2305   1.484       .  S
N260        C264   1.360       .  A
N260        C261   1.360       .  A
N260       C2340   1.439       .  S
C261        C262   1.385       .  A
C261       C2508   1.488       .  S
C262        C263   1.373       .  A
C262        H265   1.082       .  S
C263        C264   1.382       .  A
C263        H266   1.082       .  S
C264       C2281   1.484       .  S
N267        C271   1.362       .  A
N267        C268   1.362       .  A
N267       C2233   1.444       .  S
C268        C269   1.382       .  A
C268       C2257   1.483       .  S
C269        C270   1.372       .  A
C269        H272   1.082       .  S
C270        C271   1.382       .  A
C270        H273   1.082       .  S
C271       C2316   1.484       .  S
N274        C278   1.363       .  A
N274        C275   1.361       .  A
N274       C2244   1.445       .  S
C275        C276   1.382       .  A
C275       C2220   1.480       .  S
C276        C277   1.372       .  A
C276        H279   1.082       .  S
C277        C278   1.382       .  A
C277        H280   1.082       .  S
C278       C2292   1.485       .  S
N281        C285   1.362       .  A
N281        C282   1.362       .  A
N281       C2161   1.441       .  S
C282        C283   1.385       .  A
C282       C2185   1.489       .  S
C283        C284   1.371       .  A
C283        H286   1.082       .  S
C284        C285   1.382       .  A
C284        H287   1.082       .  S
C285       C2137   1.487       .  S
N288        C292   1.359       .  A
N288        C289   1.361       .  A
N288       C2172   1.443       .  S
C289        C290   1.384       .  A
C289       C2113   1.481       .  S
C290        C291   1.373       .  A
C290        H293   1.082       .  S
C291        C292   1.381       .  A
C291        H294   1.082       .  S
C292       C2089   1.479       .  S
N295        C299   1.361       .  A
N295        C296   1.362       .  A
N295       C2041   1.444       .  S
C296        C297   1.383       .  A
C296       C2076   1.484       .  S
C297        C298   1.372       .  A
C297        H300   1.082       .  S
C298        C299   1.381       .  A
C298        H301   1.082       .  S
C299       C2148   1.482       .  S
N302        C306   1.359       .  A
N302        C303   1.361       .  A
N302       C2052   1.442       .  S
C303        C304   1.384       .  A
C303       C2028   1.484       .  S
C304        C305   1.373       .  A
C304        H307   1.082       .  S
C305        C306   1.381       .  A
C305        H308   1.082       .  S
C306       C2100   1.479       .  S
O309       Ni317   1.915       .  S
O309        C319   1.281       .  A
O310       Ni317   1.918       .  S
O310        C320   1.282       .  A
O311       Ni317   1.921       .  S
O311        C321   1.282       .  A
O312       Ni317   1.921       .  S
O312        C322   1.283       .  A
O313       Ni318   1.913       .  S
O313        C322   1.281       .  A
O314       Ni318   1.917       .  S
O314        C321   1.282       .  A
O315       Ni318   1.925       .  S
O315        C320   1.283       .  A
O316       Ni318   1.925       .  S
O316        C319   1.283       .  A
Ni317      Ni318   2.386       .  S
C319       C1969   1.485       .  S
C320       C2017   1.485       .  S
C321       C2268   1.482       .  S
C322       C2004   1.482       .  S
O323       Ni331   1.917       .  S
O323        C333   1.281       .  A
O324       Ni331   1.921       .  S
O324        C334   1.282       .  A
O325       Ni331   1.924       .  S
O325        C335   1.283       .  A
O326       Ni331   1.922       .  S
O326        C336   1.282       .  A
O327       Ni332   1.920       .  S
O327        C336   1.283       .  A
O328       Ni332   1.924       .  S
O328        C335   1.283       .  A
O329       Ni332   1.921       .  S
O329        C334   1.282       .  A
O330       Ni332   1.918       .  S
O330        C333   1.282       .  A
Ni331      Ni332   2.385       .  S
C333       C1993   1.480       .  S
C334       C2484   1.486       .  S
C335       C2065   1.489       .  S
C336       C1956   1.486       .  S
O337       Ni345   1.918       .  S
O337        C347   1.282       .  A
O338       Ni345   1.922       .  S
O338        C348   1.282       .  A
O339       Ni345   1.924       .  S
O339        C349   1.283       .  A
O340       Ni345   1.926       .  S
O340        C350   1.284       .  A
O341       Ni346   1.915       .  S
O341        C350   1.281       .  A
O342       Ni346   1.922       .  S
O342        C349   1.283       .  A
O343       Ni346   1.919       .  S
O343        C348   1.282       .  A
O344       Ni346   1.921       .  S
O344        C347   1.282       .  A
Ni345      Ni346   2.386       .  S
C347       C1980   1.481       .  S
C348       C1897   1.483       .  S
C349       C2209   1.488       .  S
C350       C1921   1.485       .  S
O351       Ni359   1.920       .  S
O351        C361   1.282       .  A
O352       Ni359   1.924       .  S
O352        C362   1.283       .  A
O353       Ni359   1.932       .  S
O353        C363   1.284       .  A
O354       Ni359   1.930       .  S
O354        C364   1.284       .  A
O355       Ni360   1.913       .  S
O355        C364   1.281       .  A
O356       Ni360   1.918       .  S
O356        C363   1.282       .  A
O357       Ni360   1.926       .  S
O357        C362   1.284       .  A
O358       Ni360   1.923       .  S
O358        C361   1.283       .  A
Ni359      Ni360   2.385       .  S
C361       C1945   1.483       .  S
C362       C1873   1.489       .  S
C363       C2401   1.491       .  S
C364       C1932   1.486       .  S
N365        C369   1.355       .  A
N365        C366   1.358       .  A
N365       C1825   1.436       .  S
C366        C367   1.386       .  A
C366       C1849   1.483       .  S
C367        C368   1.375       .  A
C367        H370   1.082       .  S
C368        C369   1.380       .  A
C368        H371   1.082       .  S
C369       C1801   1.474       .  S
N372        C376   1.359       .  A
N372        C373   1.361       .  A
N372       C1836   1.437       .  S
C373        C374   1.385       .  A
C373       C1777   1.489       .  S
C374        C375   1.374       .  A
C374        H377   1.082       .  S
C375        C376   1.381       .  A
C375        H378   1.082       .  S
C376       C1753   1.482       .  S
N379        C383   1.360       .  A
N379        C380   1.363       .  A
N379       C1740   1.440       .  S
C380        C381   1.386       .  A
C380       C1884   1.493       .  S
C381        C382   1.374       .  A
C381        H384   1.082       .  S
C382        C383   1.380       .  A
C382        H385   1.082       .  S
C383       C1764   1.484       .  S
N386        C390   1.358       .  A
N386        C387   1.360       .  A
N386       C1729   1.441       .  S
C387        C388   1.384       .  A
C387       C1908   1.484       .  S
C388        C389   1.375       .  A
C388        H391   1.082       .  S
C389        C390   1.381       .  A
C389        H392   1.082       .  S
C390       C1812   1.480       .  S
O393       Ni401   1.919       .  S
O393        C403   1.282       .  A
O394       Ni401   1.923       .  S
O394        C404   1.283       .  A
O395       Ni401   1.917       .  S
O395        C405   1.281       .  A
O396       Ni401   1.914       .  S
O396        C406   1.281       .  A
O397       Ni402   1.918       .  S
O397        C406   1.282       .  A
O398       Ni402   1.921       .  S
O398        C405   1.282       .  A
O399       Ni402   1.919       .  S
O399        C404   1.282       .  A
O400       Ni402   1.918       .  S
O400        C403   1.282       .  A
Ni401      Ni402   2.386       .  S
C403       C1705   1.483       .  S
C404       C1657   1.486       .  S
C405       C1860   1.482       .  S
C406       C1692   1.480       .  S
O407       Ni415   1.921       .  S
O407        C417   1.282       .  A
O408       Ni415   1.922       .  S
O408        C418   1.282       .  A
O409       Ni415   1.925       .  S
O409        C419   1.283       .  A
O410       Ni415   1.923       .  S
O410        C420   1.283       .  A
O411       Ni416   1.925       .  S
O411        C420   1.283       .  A
O412       Ni416   1.923       .  S
O412        C419   1.283       .  A
O413       Ni416   1.915       .  S
O413        C418   1.281       .  A
O414       Ni416   1.912       .  S
O414        C417   1.281       .  A
Ni415      Ni416   2.385       .  S
C417       C1609   1.481       .  S
C418       C2124   1.482       .  S
C419       C1596   1.489       .  S
C420       C1633   1.489       .  S
O421       Ni429   1.922       .  S
O421        C431   1.283       .  A
O422       Ni429   1.926       .  S
O422        C432   1.284       .  A
O423       Ni429   1.921       .  S
O423        C433   1.282       .  A
O424       Ni429   1.918       .  S
O424        C434   1.281       .  A
O425       Ni430   1.914       .  S
O425        C434   1.282       .  A
O426       Ni430   1.919       .  S
O426        C433   1.282       .  A
O427       Ni430   1.929       .  S
O427        C432   1.284       .  A
O428       Ni430   1.928       .  S
O428        C431   1.284       .  A
Ni429      Ni430   2.385       .  S
C431       C1644   1.490       .  S
C432       C1572   1.494       .  S
C433       C2196   1.483       .  S
C434       C1681   1.481       .  S
O435       Ni443   1.921       .  S
O435        C445   1.282       .  A
O436       Ni443   1.924       .  S
O436        C446   1.283       .  A
O437       Ni443   1.924       .  S
O437        C447   1.283       .  A
O438       Ni443   1.919       .  S
O438        C448   1.282       .  A
O439       Ni444   1.917       .  S
O439        C448   1.282       .  A
O440       Ni444   1.921       .  S
O440        C447   1.282       .  A
O441       Ni444   1.921       .  S
O441        C446   1.282       .  A
O442       Ni444   1.918       .  S
O442        C445   1.282       .  A
Ni443      Ni444   2.385       .  S
C445       C1716   1.484       .  S
C446       C1537   1.487       .  S
C447       C1788   1.488       .  S
C448       C1620   1.482       .  S
O449       Ni457   1.924       .  S
O449        C459   1.283       .  A
O450       Ni457   1.926       .  S
O450        C460   1.283       .  A
O451       Ni457   1.916       .  S
O451        C461   1.281       .  A
O452       Ni457   1.916       .  S
O452        C462   1.282       .  A
O453       Ni458   1.926       .  S
O453        C462   1.283       .  A
O454       Ni458   1.927       .  S
O454        C461   1.284       .  A
O455       Ni458   1.918       .  S
O455        C460   1.282       .  A
O456       Ni458   1.912       .  S
O456        C459   1.281       .  A
Ni457      Ni458   2.385       .  S
C459       C1489   1.481       .  S
C460       C1465   1.488       .  S
C461       C3372   1.486       .  S
C462       C1513   1.486       .  S
O463       Ni471   1.928       .  S
O463        C473   1.284       .  A
O464       Ni471   1.930       .  S
O464        C474   1.284       .  A
O465       Ni471   1.922       .  S
O465        C475   1.283       .  A
O466       Ni471   1.916       .  S
O466        C476   1.281       .  A
O467       Ni472   1.921       .  S
O467        C476   1.283       .  A
O468       Ni472   1.923       .  S
O468        C475   1.283       .  A
O469       Ni472   1.920       .  S
O469        C474   1.282       .  A
O470       Ni472   1.918       .  S
O470        C473   1.282       .  A
Ni471      Ni472   2.384       .  S
C473       C1428   1.488       .  S
C474       C1393   1.490       .  S
C475       C3348   1.489       .  S
C476       C1441   1.483       .  S
O477       Ni485   1.916       .  S
O477        C487   1.282       .  A
O478       Ni485   1.919       .  S
O478        C488   1.282       .  A
O479       Ni485   1.911       .  S
O479        C489   1.281       .  A
O480       Ni485   1.911       .  S
O480        C490   1.280       .  A
O481       Ni486   1.926       .  S
O481        C490   1.283       .  A
O482       Ni486   1.930       .  S
O482        C489   1.284       .  A
O483       Ni486   1.922       .  S
O483        C488   1.282       .  A
O484       Ni486   1.918       .  S
O484        C487   1.282       .  A
Ni485      Ni486   2.386       .  S
C487       C1452   1.481       .  S
C488       C3420   1.482       .  S
C489       C1369   1.487       .  S
C490       C1500   1.483       .  S
O491       Ni499   1.924       .  S
O491        C501   1.283       .  A
O492       Ni499   1.927       .  S
O492        C502   1.284       .  A
O493       Ni499   1.915       .  S
O493        C503   1.281       .  A
O494       Ni499   1.914       .  S
O494        C504   1.281       .  A
O495       Ni500   1.926       .  S
O495        C504   1.284       .  A
O496       Ni500   1.928       .  S
O496        C503   1.284       .  A
O497       Ni500   1.926       .  S
O497        C502   1.283       .  A
O498       Ni500   1.923       .  S
O498        C501   1.282       .  A
Ni499      Ni500   2.384       .  S
C501       C1417   1.488       .  S
C502       C1356   1.492       .  S
C503       C3265   1.486       .  S
C504       C1524   1.484       .  S
N505        C509   1.361       .  A
N505        C506   1.360       .  A
N505       C1297   1.438       .  S
C506        C507   1.384       .  A
C506       C1321   1.487       .  S
C507        C508   1.374       .  A
C507        H510   1.082       .  S
C508        C509   1.383       .  A
C508        H511   1.082       .  S
C509       C1273   1.488       .  S
N512        C516   1.360       .  A
N512        C513   1.362       .  A
N512       C1308   1.439       .  S
C513        C514   1.385       .  A
C513       C1249   1.489       .  S
C514        C515   1.372       .  A
C514        H517   1.082       .  S
C515        C516   1.381       .  A
C515        H518   1.082       .  S
C516       C1225   1.485       .  S
N519        C523   1.359       .  A
N519        C520   1.360       .  A
N519       C1201   1.439       .  S
C520        C521   1.384       .  A
C520       C1548   1.486       .  S
C521        C522   1.375       .  A
C521        H524   1.082       .  S
C522        C523   1.382       .  A
C522        H525   1.082       .  S
C523       C1236   1.483       .  S
N526        C530   1.361       .  A
N526        C527   1.359       .  A
N526       C1212   1.440       .  S
C527        C528   1.381       .  A
C527       C1585   1.481       .  S
C528        C529   1.374       .  A
C528        H531   1.082       .  S
C529        C530   1.385       .  A
C529        H532   1.082       .  S
C530       C1284   1.489       .  S
N533        C537   1.360       .  A
N533        C534   1.359       .  A
N533       C1177   1.443       .  S
C534        C535   1.381       .  A
C534       C1668   1.477       .  S
C535        C536   1.373       .  A
C535        H538   1.082       .  S
C536        C537   1.382       .  A
C536        H539   1.082       .  S
C537       C1153   1.481       .  S
N540        C544   1.362       .  A
N540        C541   1.362       .  A
N540       C1188   1.442       .  S
C541        C542   1.383       .  A
C541       C1561   1.485       .  S
C542        C543   1.374       .  A
C542        H545   1.082       .  S
C543        C544   1.382       .  A
C543        H546   1.082       .  S
C544       C1129   1.485       .  S
N547        C551   1.357       .  A
N547        C548   1.359       .  A
N547       C1081   1.438       .  S
C548        C549   1.386       .  A
C548       C1105   1.486       .  S
C549        C550   1.375       .  A
C549        H552   1.082       .  S
C550        C551   1.380       .  A
C550        H553   1.082       .  S
C551       C1164   1.479       .  S
N554        C558   1.361       .  A
N554        C555   1.359       .  A
N554       C1092   1.443       .  S
C555        C556   1.381       .  A
C555       C1057   1.477       .  S
C556        C557   1.374       .  A
C556        H559   1.082       .  S
C557        C558   1.383       .  A
C557        H560   1.082       .  S
C558       C1140   1.485       .  S
N561        C565   1.362       .  A
N561        C562   1.361       .  A
N561       C1033   1.441       .  S
C562        C563   1.383       .  A
C562       C1345   1.485       .  S
C563        C564   1.375       .  A
C563        H566   1.082       .  S
C564        C565   1.382       .  A
C564        H567   1.082       .  S
C565       C1009   1.487       .  S
N568        C572   1.362       .  A
N568        C569   1.361       .  A
N568       C1044   1.443       .  S
C569        C570   1.380       .  A
C569       C1476   1.479       .  S
C570        C571   1.373       .  A
C570        H573   1.082       .  S
C571        C572   1.383       .  A
C571        H574   1.082       .  S
C572        C985   1.487       .  S
N575        C579   1.362       .  A
N575        C576   1.364       .  A
N575        C937   1.440       .  S
C576        C577   1.386       .  A
C576        C961   1.494       .  S
C577        C578   1.372       .  A
C577        H580   1.082       .  S
C578        C579   1.380       .  A
C578        H581   1.082       .  S
C579       C1020   1.486       .  S
N582        C586   1.361       .  A
N582        C583   1.364       .  A
N582        C948   1.439       .  S
C583        C584   1.386       .  A
C583        C913   1.493       .  S
C584        C585   1.371       .  A
C584        H587   1.082       .  S
C585        C586   1.381       .  A
C585        H588   1.082       .  S
C586        C996   1.486       .  S
O589       Ni597   1.919       .  S
O589        C599   1.282       .  A
O590       Ni597   1.920       .  S
O590        C600   1.282       .  A
O591       Ni597   1.919       .  S
O591        C601   1.283       .  A
O592       Ni597   1.912       .  S
O592        C602   1.281       .  A
O593       Ni598   1.920       .  S
O593        C602   1.283       .  A
O594       Ni598   1.920       .  S
O594        C601   1.282       .  A
O595       Ni598   1.920       .  S
O595        C600   1.282       .  A
O596       Ni598   1.916       .  S
O596        C599   1.282       .  A
Ni597      Ni598   2.386       .  S
C599        C865   1.481       .  S
C600        C924   1.480       .  S
C601       C1116   1.485       .  S
C602        C900   1.480       .  S
O603       Ni611   1.924       .  S
O603        C613   1.283       .  A
O604       Ni611   1.927       .  S
O604        C614   1.283       .  A
O605       Ni611   1.922       .  S
O605        C615   1.283       .  A
O606       Ni611   1.914       .  S
O606        C616   1.281       .  A
O607       Ni612   1.919       .  S
O607        C616   1.282       .  A
O608       Ni612   1.921       .  S
O608        C615   1.282       .  A
O609       Ni612   1.922       .  S
O609        C614   1.282       .  A
O610       Ni612   1.918       .  S
O610        C613   1.282       .  A
Ni611      Ni612   2.386       .  S
C613        C852   1.485       .  S
C614        C972   1.483       .  S
C615       C1332   1.487       .  S
C616        C889   1.480       .  S
O617       Ni625   1.916       .  S
O617        C627   1.281       .  A
O618       Ni625   1.917       .  S
O618        C628   1.282       .  A
O619       Ni625   1.917       .  S
O619        C629   1.282       .  A
O620       Ni625   1.917       .  S
O620        C630   1.282       .  A
O621       Ni626   1.925       .  S
O621        C630   1.283       .  A
O622       Ni626   1.930       .  S
O622        C629   1.284       .  A
O623       Ni626   1.923       .  S
O623        C628   1.283       .  A
O624       Ni626   1.916       .  S
O624        C627   1.281       .  A
Ni625      Ni626   2.385       .  S
C627        C817   1.478       .  S
C628       C1260   1.486       .  S
C629        C793   1.487       .  S
C630        C841   1.486       .  S
O631       Ni639   1.918       .  S
O631        C641   1.282       .  A
O632       Ni639   1.923       .  S
O632        C642   1.283       .  A
O633       Ni639   1.923       .  S
O633        C643   1.283       .  A
O634       Ni639   1.919       .  S
O634        C644   1.282       .  A
O635       Ni640   1.918       .  S
O635        C644   1.282       .  A
O636       Ni640   1.921       .  S
O636        C643   1.283       .  A
O637       Ni640   1.916       .  S
O637        C642   1.281       .  A
O638       Ni640   1.913       .  S
O638        C641   1.281       .  A
Ni639      Ni640   2.386       .  S
C641        C828   1.480       .  S
C642       C1068   1.485       .  S
C643        C769   1.486       .  S
C644        C876   1.482       .  S
N645        C649   1.361       .  A
N645        C646   1.362       .  A
N645        C745   1.438       .  S
C646        C647   1.384       .  A
C646       C1404   1.491       .  S
C647        C648   1.374       .  A
C647        H650   1.082       .  S
C648        C649   1.383       .  A
C648        H651   1.082       .  S
C649        C721   1.490       .  S
N652        C656   1.360       .  A
N652        C653   1.360       .  A
N652        C756   1.435       .  S
C653        C654   1.385       .  A
C653       C1380   1.488       .  S
C654        C655   1.375       .  A
C654        H657   1.082       .  S
C655        C656   1.383       .  A
C655        H658   1.082       .  S
C656        C697   1.489       .  S
N659        C663   1.358       .  A
N659        C660   1.360       .  A
N659        C684   1.436       .  S
C660        C661   1.385       .  A
C660        C780   1.491       .  S
C661        C662   1.377       .  A
C661        H664   1.082       .  S
C662        C663   1.381       .  A
C662        H665   1.082       .  S
C663        C732   1.485       .  S
N666        C670   1.360       .  A
N666        C667   1.360       .  A
N666        C673   1.439       .  S
C667        C668   1.383       .  A
C667        C804   1.486       .  S
C668        C669   1.376       .  A
C668        H671   1.082       .  S
C669        C670   1.383       .  A
C669        H672   1.082       .  S
C670        C708   1.487       .  S
C673        C674   1.401       .  A
C673        C678   1.402       .  A
C674        C675   1.397       .  A
C674        H687   1.082       .  S
C675        C676   1.405       .  A
C675        H688   1.083       .  S
C676        C677   1.409       .  A
C676        C679   1.487       .  S
C677        C678   1.397       .  A
C677        H689   1.080       .  S
C678        H690   1.083       .  S
C679        C680   1.347       .  D
C679        H691   1.084       .  S
C680        C681   1.487       .  S
C680        H692   1.084       .  S
C681        C682   1.405       .  A
C681        C686   1.410       .  A
C682        C683   1.398       .  A
C682        H693   1.083       .  S
C683        C684   1.402       .  A
C683        H694   1.083       .  S
C684        C685   1.399       .  A
C685        C686   1.396       .  A
C685        H695   1.083       .  S
C686        H696   1.080       .  S
C697        C698   1.404       .  A
C697        C702   1.405       .  A
C698        C699   1.401       .  A
C698        H711   1.081       .  S
C699        C700   1.406       .  A
C699        H712   1.083       .  S
C700        C701   1.409       .  A
C700        C703   1.495       .  S
C701        C702   1.400       .  A
C701        H713   1.080       .  S
C702        H714   1.083       .  S
C703        C704   1.351       .  D
C703        H715   1.084       .  S
C704        C705   1.494       .  S
C704        H716   1.084       .  S
C705        C706   1.407       .  A
C705        C710   1.409       .  A
C706        C707   1.402       .  A
C706        H717   1.083       .  S
C707        C708   1.404       .  A
C707        H718   1.083       .  S
C708        C709   1.404       .  A
C709        C710   1.400       .  A
C709        H719   1.083       .  S
C710        H720   1.081       .  S
C721        C722   1.406       .  A
C721        C726   1.405       .  A
C722        C723   1.404       .  A
C722        H735   1.082       .  S
C723        C724   1.407       .  A
C723        H736   1.083       .  S
C724        C725   1.408       .  A
C724        C727   1.496       .  S
C725        C726   1.399       .  A
C725        H737   1.082       .  S
C726        H738   1.083       .  S
C727        C728   1.351       .  D
C727        H739   1.085       .  S
C728        C729   1.492       .  S
C728        H740   1.085       .  S
C729        C730   1.404       .  A
C729        C734   1.410       .  A
C730        C731   1.396       .  A
C730        H741   1.083       .  S
C731        C732   1.401       .  A
C731        H742   1.083       .  S
C732        C733   1.406       .  A
C733        C734   1.407       .  A
C733        H743   1.083       .  S
C734        H744   1.082       .  S
C745        C746   1.403       .  A
C745        C750   1.402       .  A
C746        C747   1.399       .  A
C746        H759   1.083       .  S
C747        C748   1.404       .  A
C747        H760   1.083       .  S
C748        C749   1.407       .  A
C748        C751   1.484       .  S
C749        C750   1.398       .  A
C749        H761   1.082       .  S
C750        H762   1.083       .  S
C751        C752   1.346       .  D
C751        H763   1.087       .  S
C752        C753   1.482       .  S
C752        H764   1.086       .  S
C753        C754   1.403       .  A
C753        C758   1.408       .  A
C754        C755   1.396       .  A
C754        H765   1.083       .  S
C755        C756   1.401       .  A
C755        H766   1.083       .  S
C756        C757   1.402       .  A
C757        C758   1.401       .  A
C757        H767   1.083       .  S
C758        H768   1.083       .  S
C769        C770   1.405       .  A
C769        C774   1.407       .  A
C770        C771   1.400       .  A
C770        H783   1.083       .  S
C771        C772   1.405       .  A
C771        H784   1.083       .  S
C772        C773   1.409       .  A
C772        C775   1.494       .  S
C773        C774   1.403       .  A
C773        H785   1.081       .  S
C774        H786   1.083       .  S
C775        C776   1.352       .  D
C775        H787   1.083       .  S
C776        C777   1.498       .  S
C776        H788   1.085       .  S
C777        C778   1.407       .  A
C777        C782   1.410       .  A
C778        C779   1.403       .  A
C778        H789   1.083       .  S
C779        C780   1.405       .  A
C779        H790   1.082       .  S
C780        C781   1.405       .  A
C781        C782   1.400       .  A
C781        H791   1.083       .  S
C782        H792   1.080       .  S
C793        C794   1.405       .  A
C793        C798   1.407       .  A
C794        C795   1.398       .  A
C794        H807   1.083       .  S
C795        C796   1.405       .  A
C795        H808   1.083       .  S
C796        C797   1.409       .  A
C796        C799   1.493       .  S
C797        C798   1.405       .  A
C797        H809   1.081       .  S
C798        H810   1.083       .  S
C799        C800   1.352       .  D
C799        H811   1.084       .  S
C800        C801   1.497       .  S
C800        H812   1.085       .  S
C801        C802   1.408       .  A
C801        C806   1.409       .  A
C802        C803   1.404       .  A
C802        H813   1.083       .  S
C803        C804   1.403       .  A
C803        H814   1.083       .  S
C804        C805   1.403       .  A
C805        C806   1.398       .  A
C805        H815   1.083       .  S
C806        H816   1.080       .  S
C817        C818   1.404       .  A
C817        C822   1.405       .  A
C818        C819   1.397       .  A
C818        H831   1.083       .  S
C819        C820   1.403       .  A
C819        H832   1.083       .  S
C820        C821   1.408       .  A
C820        C823   1.485       .  S
C821        C822   1.397       .  A
C821        H833   1.081       .  S
C822        H834   1.083       .  S
C823        C824   1.347       .  D
C823        H835   1.084       .  S
C824        C825   1.485       .  S
C824        H836   1.084       .  S
C825        C826   1.408       .  A
C825        C830   1.403       .  A
C826        C827   1.398       .  A
C826        H837   1.081       .  S
C827        C828   1.405       .  A
C827        H838   1.083       .  S
C828        C829   1.405       .  A
C829        C830   1.396       .  A
C829        H839   1.083       .  S
C830        H840   1.083       .  S
C841        C842   1.405       .  A
C841        C846   1.406       .  A
C842        C843   1.397       .  A
C842        H855   1.083       .  S
C843        C844   1.405       .  A
C843        H856   1.083       .  S
C844        C845   1.411       .  A
C844        C847   1.494       .  S
C845        C846   1.403       .  A
C845        H857   1.079       .  S
C846        H858   1.083       .  S
C847        C848   1.350       .  D
C847        H859   1.084       .  S
C848        C849   1.492       .  S
C848        H860   1.082       .  S
C849        C850   1.404       .  A
C849        C854   1.409       .  A
C850        C851   1.400       .  A
C850        H861   1.083       .  S
C851        C852   1.406       .  A
C851        H862   1.083       .  S
C852        C853   1.405       .  A
C853        C854   1.400       .  A
C853        H863   1.083       .  S
C854        H864   1.081       .  S
C865        C866   1.404       .  A
C865        C870   1.405       .  A
C866        C867   1.398       .  A
C866        H879   1.083       .  S
C867        C868   1.406       .  A
C867        H880   1.083       .  S
C868        C869   1.410       .  A
C868        C871   1.493       .  S
C869        C870   1.398       .  A
C869        H881   1.079       .  S
C870        H882   1.083       .  S
C871        C872   1.350       .  D
C871        H883   1.083       .  S
C872        C873   1.491       .  S
C872        H884   1.082       .  S
C873        C874   1.405       .  A
C873        C878   1.409       .  A
C874        C875   1.398       .  A
C874        H885   1.083       .  S
C875        C876   1.405       .  A
C875        H886   1.083       .  S
C876        C877   1.405       .  A
C877        C878   1.398       .  A
C877        H887   1.083       .  S
C878        H888   1.080       .  S
C889        C890   1.405       .  A
C889        C894   1.406       .  A
C890        C891   1.397       .  A
C890        H903   1.083       .  S
C891        C892   1.403       .  A
C891        H904   1.083       .  S
C892        C893   1.407       .  A
C892        C895   1.484       .  S
C893        C894   1.397       .  A
C893        H905   1.082       .  S
C894        H906   1.083       .  S
C895        C896   1.348       .  D
C895        H907   1.082       .  S
C896        C897   1.489       .  S
C896        H908   1.085       .  S
C897        C898   1.405       .  A
C897        C902   1.409       .  A
C898        C899   1.398       .  A
C898        H909   1.083       .  S
C899        C900   1.404       .  A
C899        H910   1.083       .  S
C900        C901   1.405       .  A
C901        C902   1.397       .  A
C901        H911   1.083       .  S
C902        H912   1.079       .  S
C913        C914   1.408       .  A
C913        C918   1.407       .  A
C914        C915   1.405       .  A
C914        H927   1.081       .  S
C915        C916   1.405       .  A
C915        H928   1.083       .  S
C916        C917   1.403       .  A
C916        C919   1.487       .  S
C917        C918   1.395       .  A
C917        H929   1.083       .  S
C918        H930   1.083       .  S
C919        C920   1.349       .  D
C919        H931   1.086       .  S
C920        C921   1.484       .  S
C920        H932   1.087       .  S
C921        C922   1.404       .  A
C921        C926   1.405       .  A
C922        C923   1.399       .  A
C922        H933   1.083       .  S
C923        C924   1.404       .  A
C923        H934   1.083       .  S
C924        C925   1.407       .  A
C925        C926   1.401       .  A
C925        H935   1.083       .  S
C926        H936   1.083       .  S
C937        C938   1.402       .  A
C937        C942   1.402       .  A
C938        C939   1.395       .  A
C938        H951   1.083       .  S
C939        C940   1.404       .  A
C939        H952   1.083       .  S
C940        C941   1.411       .  A
C940        C943   1.490       .  S
C941        C942   1.400       .  A
C941        H953   1.080       .  S
C942        H954   1.083       .  S
C943        C944   1.349       .  D
C943        H955   1.083       .  S
C944        C945   1.492       .  S
C944        H956   1.084       .  S
C945        C946   1.405       .  A
C945        C950   1.411       .  A
C946        C947   1.397       .  A
C946        H957   1.083       .  S
C947        C948   1.402       .  A
C947        H958   1.083       .  S
C948        C949   1.402       .  A
C949        C950   1.399       .  A
C949        H959   1.083       .  S
C950        H960   1.080       .  S
C961        C962   1.407       .  A
C961        C966   1.408       .  A
C962        C963   1.395       .  A
C962        H975   1.083       .  S
C963        C964   1.400       .  A
C963        H976   1.084       .  S
C964        C965   1.410       .  A
C964        C967   1.489       .  S
C965        C966   1.409       .  A
C965        H977   1.082       .  S
C966        H978   1.082       .  S
C967        C968   1.346       .  D
C967        H979   1.087       .  S
C968        C969   1.492       .  S
C968        H980   1.086       .  S
C969        C970   1.404       .  A
C969        C974   1.408       .  A
C970        C971   1.403       .  A
C970        H981   1.083       .  S
C971        C972   1.406       .  A
C971        H982   1.083       .  S
C972        C973   1.404       .  A
C973        C974   1.402       .  A
C973        H983   1.083       .  S
C974        H984   1.083       .  S
C985        C986   1.405       .  A
C985        C990   1.403       .  A
C986        C987   1.406       .  A
C986        H999   1.083       .  S
C987        C988   1.408       .  A
C987       H1000   1.083       .  S
C988        C989   1.408       .  A
C988        C991   1.496   1_655  S
C989        C990   1.397       .  A
C989       H1001   1.082       .  S
C990       H1002   1.083       .  S
C991        C992   1.351       .  D
C991       H1003   1.086       .  S
C992        C993   1.490       .  S
C992       H1004   1.085       .  S
C993        C994   1.403       .  A
C993        C998   1.410       .  A
C994        C995   1.394       .  A
C994       H1005   1.084       .  S
C995        C996   1.402       .  A
C995       H1006   1.083       .  S
C996        C997   1.407       .  A
C997        C998   1.408       .  A
C997       H1007   1.083       .  S
C998       H1008   1.082       .  S
C1009      C1010   1.404       .  A
C1009      C1014   1.402       .  A
C1010      C1011   1.404       .  A
C1010      H1023   1.083       .  S
C1011      C1012   1.408       .  A
C1011      H1024   1.083       .  S
C1012      C1013   1.411       .  A
C1012      C1015   1.500   1_655  S
C1013      C1014   1.399       .  A
C1013      H1025   1.080       .  S
C1014      H1026   1.083       .  S
C1015      C1016   1.351       .  D
C1015      H1027   1.085       .  S
C1016      C1017   1.491       .  S
C1016      H1028   1.082       .  S
C1017      C1018   1.403       .  A
C1017      C1022   1.410       .  A
C1018      C1019   1.394       .  A
C1018      H1029   1.084       .  S
C1019      C1020   1.401       .  A
C1019      H1030   1.083       .  S
C1020      C1021   1.407       .  A
C1021      C1022   1.408       .  A
C1021      H1031   1.083       .  S
C1022      H1032   1.082       .  S
C1033      C1034   1.404       .  A
C1033      C1038   1.404       .  A
C1034      C1035   1.395       .  A
C1034      H1047   1.083       .  S
C1035      C1036   1.401       .  A
C1035      H1048   1.083       .  S
C1036      C1037   1.407       .  A
C1036      C1039   1.481       .  S
C1037      C1038   1.401       .  A
C1037      H1049   1.083       .  S
C1038      H1050   1.082       .  S
C1039      C1040   1.343       .  D
C1039      H1051   1.088       .  S
C1040      C1041   1.480       .  S
C1040      H1052   1.086       .  S
C1041      C1042   1.402       .  A
C1041      C1046   1.404       .  A
C1042      C1043   1.401       .  A
C1042      H1053   1.083       .  S
C1043      C1044   1.407       .  A
C1043      H1054   1.082       .  S
C1044      C1045   1.404       .  A
C1045      C1046   1.396       .  A
C1045      H1055   1.082       .  S
C1046      H1056   1.083       .  S
C1057      C1058   1.401       .  A
C1057      C1062   1.402       .  A
C1058      C1059   1.396       .  A
C1058      H1071   1.083       .  S
C1059      C1060   1.403       .  A
C1059      H1072   1.083       .  S
C1060      C1061   1.410       .  A
C1060      C1063   1.488       .  S
C1061      C1062   1.404       .  A
C1061      H1073   1.082       .  S
C1062      H1074   1.083       .  S
C1063      C1064   1.348       .  D
C1063      H1075   1.084       .  S
C1064      C1065   1.492       .  S
C1064      H1076   1.085       .  S
C1065      C1066   1.404       .  A
C1065      C1070   1.410       .  A
C1066      C1067   1.399       .  A
C1066      H1077   1.083       .  S
C1067      C1068   1.406       .  A
C1067      H1078   1.083       .  S
C1068      C1069   1.405       .  A
C1069      C1070   1.400       .  A
C1069      H1079   1.083       .  S
C1070      H1080   1.081       .  S
C1081      C1082   1.400       .  A
C1081      C1086   1.401       .  A
C1082      C1083   1.397       .  A
C1082      H1095   1.083       .  S
C1083      C1084   1.406       .  A
C1083      H1096   1.083       .  S
C1084      C1085   1.412       .  A
C1084      C1087   1.493       .  S
C1085      C1086   1.401       .  A
C1085      H1097   1.080       .  S
C1086      H1098   1.083       .  S
C1087      C1088   1.350       .  D
C1087      H1099   1.084       .  S
C1088      C1089   1.492       .  S
C1088      H1100   1.083       .  S
C1089      C1090   1.406       .  A
C1089      C1094   1.409       .  A
C1090      C1091   1.400       .  A
C1090      H1101   1.083       .  S
C1091      C1092   1.404       .  A
C1091      H1102   1.082       .  S
C1092      C1093   1.403       .  A
C1093      C1094   1.397       .  A
C1093      H1103   1.083       .  S
C1094      H1104   1.081       .  S
C1105      C1106   1.404       .  A
C1105      C1110   1.405       .  A
C1106      C1107   1.403       .  A
C1106      H1119   1.082       .  S
C1107      C1108   1.407       .  A
C1107      H1120   1.083       .  S
C1108      C1109   1.408       .  A
C1108      C1111   1.493       .  S
C1109      C1110   1.397       .  A
C1109      H1121   1.081       .  S
C1110      H1122   1.083       .  S
C1111      C1112   1.350       .  D
C1111      H1123   1.085       .  S
C1112      C1113   1.489       .  S
C1112      H1124   1.084       .  S
C1113      C1114   1.403       .  A
C1113      C1118   1.408       .  A
C1114      C1115   1.398       .  A
C1114      H1125   1.083       .  S
C1115      C1116   1.405       .  A
C1115      H1126   1.083       .  S
C1116      C1117   1.408       .  A
C1117      C1118   1.402       .  A
C1117      H1127   1.083       .  S
C1118      H1128   1.082       .  S
C1129      C1130   1.402       .  A
C1129      C1134   1.406       .  A
C1130      C1131   1.396       .  A
C1130      H1143   1.084       .  S
C1131      C1132   1.404       .  A
C1131      H1144   1.083       .  S
C1132      C1133   1.410       .  A
C1132      C1135   1.492       .  S
C1133      C1134   1.407       .  A
C1133      H1145   1.082       .  S
C1134      H1146   1.083       .  S
C1135      C1136   1.351       .  D
C1135      H1147   1.084       .  S
C1136      C1137   1.496   1_565  S
C1136      H1148   1.085       .  S
C1137      C1138   1.407       .  A
C1137      C1142   1.409       .  A
C1138      C1139   1.403       .  A
C1138      H1149   1.083       .  S
C1139      C1140   1.404       .  A
C1139      H1150   1.083       .  S
C1140      C1141   1.403       .  A
C1141      C1142   1.398       .  A
C1141      H1151   1.083       .  S
C1142      H1152   1.081       .  S
C1153      C1154   1.402       .  A
C1153      C1158   1.403       .  A
C1154      C1155   1.396       .  A
C1154      H1167   1.083       .  S
C1155      C1156   1.404       .  A
C1155      H1168   1.083       .  S
C1156      C1157   1.411       .  A
C1156      C1159   1.491       .  S
C1157      C1158   1.403       .  A
C1157      H1169   1.081       .  S
C1158      H1170   1.083       .  S
C1159      C1160   1.348       .  D
C1159      H1171   1.086       .  S
C1160      C1161   1.490   1_565  S
C1160      H1172   1.084       .  S
C1161      C1162   1.406       .  A
C1161      C1166   1.409       .  A
C1162      C1163   1.402       .  A
C1162      H1173   1.083       .  S
C1163      C1164   1.403       .  A
C1163      H1174   1.083       .  S
C1164      C1165   1.401       .  A
C1165      C1166   1.397       .  A
C1165      H1175   1.083       .  S
C1166      H1176   1.082       .  S
C1177      C1178   1.402       .  A
C1177      C1182   1.405       .  A
C1178      C1179   1.396       .  A
C1178      H1191   1.083       .  S
C1179      C1180   1.405       .  A
C1179      H1192   1.083       .  S
C1180      C1181   1.411       .  A
C1180      C1183   1.493       .  S
C1181      C1182   1.402       .  A
C1181      H1193   1.080       .  S
C1182      H1194   1.082       .  S
C1183      C1184   1.350       .  D
C1183      H1195   1.085       .  S
C1184      C1185   1.492       .  S
C1184      H1196   1.083       .  S
C1185      C1186   1.406       .  A
C1185      C1190   1.409       .  A
C1186      C1187   1.400       .  A
C1186      H1197   1.083       .  S
C1187      C1188   1.403       .  A
C1187      H1198   1.083       .  S
C1188      C1189   1.403       .  A
C1189      C1190   1.398       .  A
C1189      H1199   1.083       .  S
C1190      H1200   1.081       .  S
C1201      C1202   1.401       .  A
C1201      C1206   1.402       .  A
C1202      C1203   1.399       .  A
C1202      H1215   1.083       .  S
C1203      C1204   1.406       .  A
C1203      H1216   1.083       .  S
C1204      C1205   1.410       .  A
C1204      C1207   1.491       .  S
C1205      C1206   1.398       .  A
C1205      H1217   1.081       .  S
C1206      H1218   1.083       .  S
C1207      C1208   1.351       .  D
C1207      H1219   1.082       .  S
C1208      C1209   1.493       .  S
C1208      H1220   1.084       .  S
C1209      C1210   1.407       .  A
C1209      C1214   1.411       .  A
C1210      C1211   1.397       .  A
C1210      H1221   1.083       .  S
C1211      C1212   1.401       .  A
C1211      H1222   1.083       .  S
C1212      C1213   1.402       .  A
C1213      C1214   1.400       .  A
C1213      H1223   1.083       .  S
C1214      H1224   1.079       .  S
C1225      C1226   1.402       .  A
C1225      C1230   1.405       .  A
C1226      C1227   1.395       .  A
C1226      H1239   1.083       .  S
C1227      C1228   1.404       .  A
C1227      H1240   1.083       .  S
C1228      C1229   1.411       .  A
C1228      C1231   1.492       .  S
C1229      C1230   1.405       .  A
C1229      H1241   1.080       .  S
C1230      H1242   1.083       .  S
C1231      C1232   1.348       .  D
C1231      H1243   1.086       .  S
C1232      C1233   1.491       .  S
C1232      H1244   1.084       .  S
C1233      C1234   1.406       .  A
C1233      C1238   1.408       .  A
C1234      C1235   1.404       .  A
C1234      H1245   1.083       .  S
C1235      C1236   1.405       .  A
C1235      H1246   1.083       .  S
C1236      C1237   1.402       .  A
C1237      C1238   1.396       .  A
C1237      H1247   1.083       .  S
C1238      H1248   1.082       .  S
C1249      C1250   1.404       .  A
C1249      C1254   1.406       .  A
C1250      C1251   1.403       .  A
C1250      H1263   1.082       .  S
C1251      C1252   1.407       .  A
C1251      H1264   1.083       .  S
C1252      C1253   1.408       .  A
C1252      C1255   1.495       .  S
C1253      C1254   1.397       .  A
C1253      H1265   1.080       .  S
C1254      H1266   1.083       .  S
C1255      C1256   1.351       .  D
C1255      H1267   1.085       .  S
C1256      C1257   1.491       .  S
C1256      H1268   1.084       .  S
C1257      C1258   1.404       .  A
C1257      C1262   1.409       .  A
C1258      C1259   1.398       .  A
C1258      H1269   1.083       .  S
C1259      C1260   1.406       .  A
C1259      H1270   1.083       .  S
C1260      C1261   1.407       .  A
C1261      C1262   1.402       .  A
C1261      H1271   1.083       .  S
C1262      H1272   1.081       .  S
C1273      C1274   1.406       .  A
C1273      C1278   1.404       .  A
C1274      C1275   1.405       .  A
C1274      H1287   1.082       .  S
C1275      C1276   1.406       .  A
C1275      H1288   1.083       .  S
C1276      C1277   1.408       .  A
C1276      C1279   1.493       .  S
C1277      C1278   1.397       .  A
C1277      H1289   1.082       .  S
C1278      H1290   1.083       .  S
C1279      C1280   1.349       .  D
C1279      H1291   1.084       .  S
C1280      C1281   1.493       .  S
C1280      H1292   1.086       .  S
C1281      C1282   1.404       .  A
C1281      C1286   1.411       .  A
C1282      C1283   1.396       .  A
C1282      H1293   1.083       .  S
C1283      C1284   1.404       .  A
C1283      H1294   1.084       .  S
C1284      C1285   1.406       .  A
C1285      C1286   1.405       .  A
C1285      H1295   1.082       .  S
C1286      H1296   1.080       .  S
C1297      C1298   1.400       .  A
C1297      C1302   1.401       .  A
C1298      C1299   1.397       .  A
C1298      H1311   1.083       .  S
C1299      C1300   1.407       .  A
C1299      H1312   1.083       .  S
C1300      C1301   1.412       .  A
C1300      C1303   1.493       .  S
C1301      C1302   1.401       .  A
C1301      H1313   1.079       .  S
C1302      H1314   1.083       .  S
C1303      C1304   1.351       .  D
C1303      H1315   1.083       .  S
C1304      C1305   1.493       .  S
C1304      H1316   1.082       .  S
C1305      C1306   1.407       .  A
C1305      C1310   1.410       .  A
C1306      C1307   1.401       .  A
C1306      H1317   1.083       .  S
C1307      C1308   1.402       .  A
C1307      H1318   1.083       .  S
C1308      C1309   1.401       .  A
C1309      C1310   1.397       .  A
C1309      H1319   1.083       .  S
C1310      H1320   1.080       .  S
C1321      C1322   1.404       .  A
C1321      C1326   1.405       .  A
C1322      C1323   1.404       .  A
C1322      H1335   1.082       .  S
C1323      C1324   1.408       .  A
C1323      H1336   1.083       .  S
C1324      C1325   1.408       .  A
C1324      C1327   1.494       .  S
C1325      C1326   1.397       .  A
C1325      H1337   1.081       .  S
C1326      H1338   1.083       .  S
C1327      C1328   1.351       .  D
C1327      H1339   1.086       .  S
C1328      C1329   1.491       .  S
C1328      H1340   1.084       .  S
C1329      C1330   1.404       .  A
C1329      C1334   1.408       .  A
C1330      C1331   1.400       .  A
C1330      H1341   1.083       .  S
C1331      C1332   1.406       .  A
C1331      H1342   1.083       .  S
C1332      C1333   1.407       .  A
C1333      C1334   1.402       .  A
C1333      H1343   1.083       .  S
C1334      H1344   1.082       .  S
C1345      C1346   1.404       .  A
C1345      C1350   1.404       .  A
C1346      C1347   1.398       .  A
C1346      H1359   1.083       .  S
C1347      C1348   1.404       .  A
C1347      H1360   1.083       .  S
C1348      C1349   1.412       .  A
C1348      C1351   1.495       .  S
C1349      C1350   1.407       .  A
C1349      H1361   1.082       .  S
C1350      H1362   1.083       .  S
C1351      C1352   1.352       .  D
C1351      H1363   1.083       .  S
C1352      C1353   1.501       .  S
C1352      H1364   1.085       .  S
C1353      C1354   1.406       .  A
C1353      C1358   1.411       .  A
C1354      C1355   1.402       .  A
C1354      H1365   1.083       .  S
C1355      C1356   1.406       .  A
C1355      H1366   1.083       .  S
C1356      C1357   1.407       .  A
C1357      C1358   1.404       .  A
C1357      H1367   1.083       .  S
C1358      H1368   1.080       .  S
C1369      C1370   1.406       .  A
C1369      C1374   1.407       .  A
C1370      C1371   1.396       .  A
C1370      H1383   1.083       .  S
C1371      C1372   1.403       .  A
C1371      H1384   1.084       .  S
C1372      C1373   1.410       .  A
C1372      C1375   1.492       .  S
C1373      C1374   1.405       .  A
C1373      H1385   1.081       .  S
C1374      H1386   1.083       .  S
C1375      C1376   1.351       .  D
C1375      H1387   1.084       .  S
C1376      C1377   1.496       .  S
C1376      H1388   1.085       .  S
C1377      C1378   1.408       .  A
C1377      C1382   1.408       .  A
C1378      C1379   1.405       .  A
C1378      H1389   1.083       .  S
C1379      C1380   1.404       .  A
C1379      H1390   1.082       .  S
C1380      C1381   1.405       .  A
C1381      C1382   1.397       .  A
C1381      H1391   1.083       .  S
C1382      H1392   1.080       .  S
C1393      C1394   1.406       .  A
C1393      C1398   1.408       .  A
C1394      C1395   1.400       .  A
C1394      H1407   1.083       .  S
C1395      C1396   1.405       .  A
C1395      H1408   1.083       .  S
C1396      C1397   1.408       .  A
C1396      C1399   1.494       .  S
C1397      C1398   1.404       .  A
C1397      H1409   1.082       .  S
C1398      H1410   1.083       .  S
C1399      C1400   1.353       .  D
C1399      H1411   1.082       .  S
C1400      C1401   1.500       .  S
C1400      H1412   1.085       .  S
C1401      C1402   1.408       .  A
C1401      C1406   1.409       .  A
C1402      C1403   1.404       .  A
C1402      H1413   1.083       .  S
C1403      C1404   1.404       .  A
C1403      H1414   1.082       .  S
C1404      C1405   1.406       .  A
C1405      C1406   1.399       .  A
C1405      H1415   1.083       .  S
C1406      H1416   1.080       .  S
C1417      C1418   1.405       .  A
C1417      C1422   1.408       .  A
C1418      C1419   1.399       .  A
C1418      H1431   1.083       .  S
C1419      C1420   1.405       .  A
C1419      H1432   1.083       .  S
C1420      C1421   1.409       .  A
C1420      C1423   1.494       .  S
C1421      C1422   1.403       .  A
C1421      H1433   1.081       .  S
C1422      H1434   1.083       .  S
C1423      C1424   1.352       .  D
C1423      H1435   1.084       .  S
C1424      C1425   1.495       .  S
C1424      H1436   1.083       .  S
C1425      C1426   1.406       .  A
C1425      C1430   1.408       .  A
C1426      C1427   1.403       .  A
C1426      H1437   1.083       .  S
C1427      C1428   1.406       .  A
C1427      H1438   1.083       .  S
C1428      C1429   1.407       .  A
C1429      C1430   1.399       .  A
C1429      H1439   1.083       .  S
C1430      H1440   1.081       .  S
C1441      C1442   1.405       .  A
C1441      C1446   1.405       .  A
C1442      C1443   1.398       .  A
C1442      H1455   1.083       .  S
C1443      C1444   1.404       .  A
C1443      H1456   1.083       .  S
C1444      C1445   1.410       .  A
C1444      C1447   1.491       .  S
C1445      C1446   1.399       .  A
C1445      H1457   1.079       .  S
C1446      H1458   1.083       .  S
C1447      C1448   1.349       .  D
C1447      H1459   1.083       .  S
C1448      C1449   1.490       .  S
C1448      H1460   1.083       .  S
C1449      C1450   1.404       .  A
C1449      C1454   1.409       .  A
C1450      C1451   1.398       .  A
C1450      H1461   1.083       .  S
C1451      C1452   1.405       .  A
C1451      H1462   1.083       .  S
C1452      C1453   1.405       .  A
C1453      C1454   1.398       .  A
C1453      H1463   1.083       .  S
C1454      H1464   1.080       .  S
C1465      C1466   1.406       .  A
C1465      C1470   1.406       .  A
C1466      C1467   1.402       .  A
C1466      H1479   1.083       .  S
C1467      C1468   1.405       .  A
C1467      H1480   1.083       .  S
C1468      C1469   1.409       .  A
C1468      C1471   1.494       .  S
C1469      C1470   1.399       .  A
C1469      H1481   1.081       .  S
C1470      H1482   1.083       .  S
C1471      C1472   1.350       .  D
C1471      H1483   1.085       .  S
C1472      C1473   1.489       .  S
C1472      H1484   1.084       .  S
C1473      C1474   1.403       .  A
C1473      C1478   1.410       .  A
C1474      C1475   1.396       .  A
C1474      H1485   1.083       .  S
C1475      C1476   1.401       .  A
C1475      H1486   1.083       .  S
C1476      C1477   1.404       .  A
C1477      C1478   1.405       .  A
C1477      H1487   1.083       .  S
C1478      H1488   1.082       .  S
C1489      C1490   1.404       .  A
C1489      C1494   1.405       .  A
C1490      C1491   1.400       .  A
C1490      H1503   1.083       .  S
C1491      C1492   1.406       .  A
C1491      H1504   1.083       .  S
C1492      C1493   1.408       .  A
C1492      C1495   1.491       .  S
C1493      C1494   1.397       .  A
C1493      H1505   1.079       .  S
C1494      H1506   1.083       .  S
C1495      C1496   1.351       .  D
C1495      H1507   1.085       .  S
C1496      C1497   1.489       .  S
C1496      H1508   1.083       .  S
C1497      C1498   1.405       .  A
C1497      C1502   1.407       .  A
C1498      C1499   1.400       .  A
C1498      H1509   1.083       .  S
C1499      C1500   1.405       .  A
C1499      H1510   1.083       .  S
C1500      C1501   1.406       .  A
C1501      C1502   1.396       .  A
C1501      H1511   1.083       .  S
C1502      H1512   1.081       .  S
C1513      C1514   1.406       .  A
C1513      C1518   1.406       .  A
C1514      C1515   1.397       .  A
C1514      H1527   1.083       .  S
C1515      C1516   1.404       .  A
C1515      H1528   1.083       .  S
C1516      C1517   1.410       .  A
C1516      C1519   1.493       .  S
C1517      C1518   1.403       .  A
C1517      H1529   1.081       .  S
C1518      H1530   1.083       .  S
C1519      C1520   1.349       .  D
C1519      H1531   1.083       .  S
C1520      C1521   1.494       .  S
C1520      H1532   1.084       .  S
C1521      C1522   1.404       .  A
C1521      C1526   1.411       .  A
C1522      C1523   1.398       .  A
C1522      H1533   1.083       .  S
C1523      C1524   1.406       .  A
C1523      H1534   1.083       .  S
C1524      C1525   1.405       .  A
C1525      C1526   1.402       .  A
C1525      H1535   1.083       .  S
C1526      H1536   1.080       .  S
C1537      C1538   1.407       .  A
C1537      C1542   1.407       .  A
C1538      C1539   1.401       .  A
C1538      H1551   1.083       .  S
C1539      C1540   1.404       .  A
C1539      H1552   1.083       .  S
C1540      C1541   1.407       .  A
C1540      C1543   1.489       .  S
C1541      C1542   1.402       .  A
C1541      H1553   1.082       .  S
C1542      H1554   1.083       .  S
C1543      C1544   1.349       .  D
C1543      H1555   1.085       .  S
C1544      C1545   1.491       .  S
C1544      H1556   1.086       .  S
C1545      C1546   1.406       .  A
C1545      C1550   1.407       .  A
C1546      C1547   1.403       .  A
C1546      H1557   1.083       .  S
C1547      C1548   1.404       .  A
C1547      H1558   1.082       .  S
C1548      C1549   1.405       .  A
C1549      C1550   1.399       .  A
C1549      H1559   1.084       .  S
C1550      H1560   1.082       .  S
C1561      C1562   1.405       .  A
C1561      C1566   1.404       .  A
C1562      C1563   1.400       .  A
C1562      H1575   1.083       .  S
C1563      C1564   1.403       .  A
C1563      H1576   1.083       .  S
C1564      C1565   1.411       .  A
C1564      C1567   1.494       .  S
C1565      C1566   1.406       .  A
C1565      H1577   1.082       .  S
C1566      H1578   1.083       .  S
C1567      C1568   1.350       .  D
C1567      H1579   1.086       .  S
C1568      C1569   1.496       .  S
C1568      H1580   1.086       .  S
C1569      C1570   1.404       .  A
C1569      C1574   1.409       .  A
C1570      C1571   1.401       .  A
C1570      H1581   1.084       .  S
C1571      C1572   1.407       .  A
C1571      H1582   1.083       .  S
C1572      C1573   1.409       .  A
C1573      C1574   1.406       .  A
C1573      H1583   1.083       .  S
C1574      H1584   1.082       .  S
C1585      C1586   1.403       .  A
C1585      C1590   1.404       .  A
C1586      C1587   1.397       .  A
C1586      H1599   1.083       .  S
C1587      C1588   1.403       .  A
C1587      H1600   1.083       .  S
C1588      C1589   1.410       .  A
C1588      C1591   1.489       .  S
C1589      C1590   1.405       .  A
C1589      H1601   1.082       .  S
C1590      H1602   1.083       .  S
C1591      C1592   1.350       .  D
C1591      H1603   1.084       .  S
C1592      C1593   1.495       .  S
C1592      H1604   1.086       .  S
C1593      C1594   1.405       .  A
C1593      C1598   1.410       .  A
C1594      C1595   1.401       .  A
C1594      H1605   1.083       .  S
C1595      C1596   1.406       .  A
C1595      H1606   1.083       .  S
C1596      C1597   1.407       .  A
C1597      C1598   1.401       .  A
C1597      H1607   1.083       .  S
C1598      H1608   1.081       .  S
C1609      C1610   1.405       .  A
C1609      C1614   1.405       .  A
C1610      C1611   1.396       .  A
C1610      H1623   1.083       .  S
C1611      C1612   1.403       .  A
C1611      H1624   1.084       .  S
C1612      C1613   1.408       .  A
C1612      C1615   1.486       .  S
C1613      C1614   1.400       .  A
C1613      H1625   1.081       .  S
C1614      H1626   1.083       .  S
C1615      C1616   1.348       .  D
C1615      H1627   1.084       .  S
C1616      C1617   1.489       .  S
C1616      H1628   1.085       .  S
C1617      C1618   1.404       .  A
C1617      C1622   1.408       .  A
C1618      C1619   1.400       .  A
C1618      H1629   1.084       .  S
C1619      C1620   1.406       .  A
C1619      H1630   1.083       .  S
C1620      C1621   1.405       .  A
C1621      C1622   1.396       .  A
C1621      H1631   1.083       .  S
C1622      H1632   1.080       .  S
C1633      C1634   1.405       .  A
C1633      C1638   1.407       .  A
C1634      C1635   1.401       .  A
C1634      H1647   1.083       .  S
C1635      C1636   1.406       .  A
C1635      H1648   1.083       .  S
C1636      C1637   1.410       .  A
C1636      C1639   1.498       .  S
C1637      C1638   1.402       .  A
C1637      H1649   1.080       .  S
C1638      H1650   1.083       .  S
C1639      C1640   1.353       .  D
C1639      H1651   1.082       .  S
C1640      C1641   1.500       .  S
C1640      H1652   1.083       .  S
C1641      C1642   1.406       .  A
C1641      C1646   1.412       .  A
C1642      C1643   1.400       .  A
C1642      H1653   1.084       .  S
C1643      C1644   1.406       .  A
C1643      H1654   1.083       .  S
C1644      C1645   1.407       .  A
C1645      C1646   1.404       .  A
C1645      H1655   1.083       .  S
C1646      H1656   1.079       .  S
C1657      C1658   1.407       .  A
C1657      C1662   1.406       .  A
C1658      C1659   1.400       .  A
C1658      H1671   1.083       .  S
C1659      C1660   1.403       .  A
C1659      H1672   1.083       .  S
C1660      C1661   1.409       .  A
C1660      C1663   1.491       .  S
C1661      C1662   1.400       .  A
C1661      H1673   1.081       .  S
C1662      H1674   1.083       .  S
C1663      C1664   1.349       .  D
C1663      H1675   1.085       .  S
C1664      C1665   1.489       .  S
C1664      H1676   1.085       .  S
C1665      C1666   1.403       .  A
C1665      C1670   1.411       .  A
C1666      C1667   1.396       .  A
C1666      H1677   1.083       .  S
C1667      C1668   1.401       .  A
C1667      H1678   1.083       .  S
C1668      C1669   1.403       .  A
C1669      C1670   1.404       .  A
C1669      H1679   1.083       .  S
C1670      H1680   1.082       .  S
C1681      C1682   1.406       .  A
C1681      C1686   1.404       .  A
C1682      C1683   1.400       .  A
C1682      H1695   1.083       .  S
C1683      C1684   1.405       .  A
C1683      H1696   1.083       .  S
C1684      C1685   1.408       .  A
C1684      C1687   1.489       .  S
C1685      C1686   1.395       .  A
C1685      H1697   1.080       .  S
C1686      H1698   1.083       .  S
C1687      C1688   1.349       .  D
C1687      H1699   1.082       .  S
C1688      C1689   1.489       .  S
C1688      H1700   1.084       .  S
C1689      C1690   1.404       .  A
C1689      C1694   1.410       .  A
C1690      C1691   1.395       .  A
C1690      H1701   1.084       .  S
C1691      C1692   1.404       .  A
C1691      H1702   1.083       .  S
C1692      C1693   1.405       .  A
C1693      C1694   1.400       .  A
C1693      H1703   1.083       .  S
C1694      H1704   1.079       .  S
C1705      C1706   1.406       .  A
C1705      C1710   1.406       .  A
C1706      C1707   1.398       .  A
C1706      H1719   1.083       .  S
C1707      C1708   1.404       .  A
C1707      H1720   1.083       .  S
C1708      C1709   1.409       .  A
C1708      C1711   1.490       .  S
C1709      C1710   1.399       .  A
C1709      H1721   1.081       .  S
C1710      H1722   1.083       .  S
C1711      C1712   1.349       .  D
C1711      H1723   1.083       .  S
C1712      C1713   1.491       .  S
C1712      H1724   1.084       .  S
C1713      C1714   1.404       .  A
C1713      C1718   1.410       .  A
C1714      C1715   1.397       .  A
C1714      H1725   1.083       .  S
C1715      C1716   1.405       .  A
C1715      H1726   1.083       .  S
C1716      C1717   1.406       .  A
C1717      C1718   1.401       .  A
C1717      H1727   1.083       .  S
C1718      H1728   1.080       .  S
C1729      C1730   1.401       .  A
C1729      C1734   1.403       .  A
C1730      C1731   1.399       .  A
C1730      H1743   1.083       .  S
C1731      C1732   1.407       .  A
C1731      H1744   1.083       .  S
C1732      C1733   1.410       .  A
C1732      C1735   1.493       .  S
C1733      C1734   1.398       .  A
C1733      H1745   1.079       .  S
C1734      H1746   1.083       .  S
C1735      C1736   1.351       .  D
C1735      H1747   1.084       .  S
C1736      C1737   1.492       .  S
C1736      H1748   1.083       .  S
C1737      C1738   1.407       .  A
C1737      C1742   1.409       .  A
C1738      C1739   1.400       .  A
C1738      H1749   1.083       .  S
C1739      C1740   1.401       .  A
C1739      H1750   1.083       .  S
C1740      C1741   1.403       .  A
C1741      C1742   1.397       .  A
C1741      H1751   1.083       .  S
C1742      H1752   1.080       .  S
C1753      C1754   1.403       .  A
C1753      C1758   1.403       .  A
C1754      C1755   1.398       .  A
C1754      H1767   1.084       .  S
C1755      C1756   1.405       .  A
C1755      H1768   1.083       .  S
C1756      C1757   1.410       .  A
C1756      C1759   1.492       .  S
C1757      C1758   1.403       .  A
C1757      H1769   1.081       .  S
C1758      H1770   1.081       .  S
C1759      C1760   1.349       .  D
C1759      H1771   1.086       .  S
C1760      C1761   1.491       .  S
C1760      H1772   1.085       .  S
C1761      C1762   1.406       .  A
C1761      C1766   1.408       .  A
C1762      C1763   1.403       .  A
C1762      H1773   1.083       .  S
C1763      C1764   1.404       .  A
C1763      H1774   1.083       .  S
C1764      C1765   1.403       .  A
C1765      C1766   1.398       .  A
C1765      H1775   1.083       .  S
C1766      H1776   1.082       .  S
C1777      C1778   1.404       .  A
C1777      C1782   1.407       .  A
C1778      C1779   1.403       .  A
C1778      H1791   1.082       .  S
C1779      C1780   1.407       .  A
C1779      H1792   1.083       .  S
C1780      C1781   1.406       .  A
C1780      C1783   1.492       .  S
C1781      C1782   1.398       .  A
C1781      H1793   1.082       .  S
C1782      H1794   1.083       .  S
C1783      C1784   1.351       .  D
C1783      H1795   1.086       .  S
C1784      C1785   1.490       .  S
C1784      H1796   1.085       .  S
C1785      C1786   1.405       .  A
C1785      C1790   1.407       .  A
C1786      C1787   1.401       .  A
C1786      H1797   1.083       .  S
C1787      C1788   1.407       .  A
C1787      H1798   1.083       .  S
C1788      C1789   1.407       .  A
C1789      C1790   1.401       .  A
C1789      H1799   1.083       .  S
C1790      H1800   1.082       .  S
C1801      C1802   1.401       .  A
C1801      C1806   1.401       .  A
C1802      C1803   1.401       .  A
C1802      H1815   1.083       .  S
C1803      C1804   1.406       .  A
C1803      H1816   1.083       .  S
C1804      C1805   1.408       .  A
C1804      C1807   1.488       .  S
C1805      C1806   1.397       .  A
C1805      H1817   1.082       .  S
C1806      H1818   1.083       .  S
C1807      C1808   1.348       .  D
C1807      H1819   1.086       .  S
C1808      C1809   1.485       .  S
C1808      H1820   1.086       .  S
C1809      C1810   1.403       .  A
C1809      C1814   1.408       .  A
C1810      C1811   1.396       .  A
C1810      H1821   1.083       .  S
C1811      C1812   1.401       .  A
C1811      H1822   1.083       .  S
C1812      C1813   1.404       .  A
C1813      C1814   1.403       .  A
C1813      H1823   1.083       .  S
C1814      H1824   1.082       .  S
C1825      C1826   1.400       .  A
C1825      C1830   1.398       .  A
C1826      C1827   1.401       .  A
C1826      H1839   1.083       .  S
C1827      C1828   1.408       .  A
C1827      H1840   1.083       .  S
C1828      C1829   1.412       .  A
C1828      C1831   1.496       .  S
C1829      C1830   1.397       .  A
C1829      H1841   1.078       .  S
C1830      H1842   1.082       .  S
C1831      C1832   1.351       .  D
C1831      H1843   1.084       .  S
C1832      C1833   1.491       .  S
C1832      H1844   1.081       .  S
C1833      C1834   1.406       .  A
C1833      C1838   1.410       .  A
C1834      C1835   1.398       .  A
C1834      H1845   1.083       .  S
C1835      C1836   1.399       .  A
C1835      H1846   1.083       .  S
C1836      C1837   1.401       .  A
C1837      C1838   1.400       .  A
C1837      H1847   1.081       .  S
C1838      H1848   1.080       .  S
C1849      C1850   1.403       .  A
C1849      C1854   1.404       .  A
C1850      C1851   1.402       .  A
C1850      H1863   1.082       .  S
C1851      C1852   1.407       .  A
C1851      H1864   1.083       .  S
C1852      C1853   1.407       .  A
C1852      C1855   1.490       .  S
C1853      C1854   1.396       .  A
C1853      H1865   1.081       .  S
C1854      H1866   1.083       .  S
C1855      C1856   1.349       .  D
C1855      H1867   1.085       .  S
C1856      C1857   1.488       .  S
C1856      H1868   1.084       .  S
C1857      C1858   1.404       .  A
C1857      C1862   1.407       .  A
C1858      C1859   1.399       .  A
C1858      H1869   1.083       .  S
C1859      C1860   1.405       .  A
C1859      H1870   1.083       .  S
C1860      C1861   1.407       .  A
C1861      C1862   1.399       .  A
C1861      H1871   1.083       .  S
C1862      H1872   1.082       .  S
C1873      C1874   1.406       .  A
C1873      C1878   1.409       .  A
C1874      C1875   1.401       .  A
C1874      H1887   1.083       .  S
C1875      C1876   1.403       .  A
C1875      H1888   1.083       .  S
C1876      C1877   1.405       .  A
C1876      C1879   1.487       .  S
C1877      C1878   1.404       .  A
C1877      H1889   1.083       .  S
C1878      H1890   1.083       .  S
C1879      C1880   1.349       .  D
C1879      H1891   1.087       .  S
C1880      C1881   1.488       .  S
C1880      H1892   1.086       .  S
C1881      C1882   1.405       .  A
C1881      C1886   1.403       .  A
C1882      C1883   1.405       .  A
C1882      H1893   1.083       .  S
C1883      C1884   1.407       .  A
C1883      H1894   1.082       .  S
C1884      C1885   1.408       .  A
C1885      C1886   1.398       .  A
C1885      H1895   1.083       .  S
C1886      H1896   1.083       .  S
C1897      C1898   1.406       .  A
C1897      C1902   1.406       .  A
C1898      C1899   1.402       .  A
C1898      H1911   1.083       .  S
C1899      C1900   1.405       .  A
C1899      H1912   1.083       .  S
C1900      C1901   1.406       .  A
C1900      C1903   1.488       .  S
C1901      C1902   1.398       .  A
C1901      H1913   1.082       .  S
C1902      H1914   1.083       .  S
C1903      C1904   1.350       .  D
C1903      H1915   1.085       .  S
C1904      C1905   1.490       .  S
C1904      H1916   1.086       .  S
C1905      C1906   1.407       .  A
C1905      C1910   1.407       .  A
C1906      C1907   1.402       .  A
C1906      H1917   1.083       .  S
C1907      C1908   1.403       .  A
C1907      H1918   1.083       .  S
C1908      C1909   1.404       .  A
C1909      C1910   1.397       .  A
C1909      H1919   1.083       .  S
C1910      H1920   1.081       .  S
C1921      C1922   1.406       .  A
C1921      C1926   1.406       .  A
C1922      C1923   1.398       .  A
C1922      H1935   1.083       .  S
C1923      C1924   1.403       .  A
C1923      H1936   1.083       .  S
C1924      C1925   1.409       .  A
C1924      C1927   1.491       .  S
C1925      C1926   1.401       .  A
C1925      H1937   1.081       .  S
C1926      H1938   1.083       .  S
C1927      C1928   1.349       .  D
C1927      H1939   1.083       .  S
C1928      C1929   1.494       .  S
C1928      H1940   1.085       .  S
C1929      C1930   1.404       .  A
C1929      C1934   1.411       .  A
C1930      C1931   1.397       .  A
C1930      H1941   1.083       .  S
C1931      C1932   1.406       .  A
C1931      H1942   1.083       .  S
C1932      C1933   1.406       .  A
C1933      C1934   1.403       .  A
C1933      H1943   1.083       .  S
C1934      H1944   1.080       .  S
C1945      C1946   1.405       .  A
C1945      C1950   1.405       .  A
C1946      C1947   1.401       .  A
C1946      H1959   1.083       .  S
C1947      C1948   1.410       .  A
C1947      H1960   1.081       .  S
C1948      C1949   1.405       .  A
C1948      C1951   1.492       .  S
C1949      C1950   1.399       .  A
C1949      H1961   1.083       .  S
C1950      H1962   1.083       .  S
C1951      C1952   1.349       .  D
C1951      H1963   1.085       .  S
C1952      C1953   1.492       .  S
C1952      H1964   1.084       .  S
C1953      C1954   1.404       .  A
C1953      C1958   1.409       .  A
C1954      C1955   1.398       .  A
C1954      H1965   1.083       .  S
C1955      C1956   1.405       .  A
C1955      H1966   1.083       .  S
C1956      C1957   1.407       .  A
C1957      C1958   1.402       .  A
C1957      H1967   1.083       .  S
C1958      H1968   1.081       .  S
C1969      C1970   1.405       .  A
C1969      C1974   1.407       .  A
C1970      C1971   1.400       .  A
C1970      H1983   1.083       .  S
C1971      C1972   1.405       .  A
C1971      H1984   1.083       .  S
C1972      C1973   1.408       .  A
C1972      C1975   1.491       .  S
C1973      C1974   1.399       .  A
C1973      H1985   1.081       .  S
C1974      H1986   1.083       .  S
C1975      C1976   1.350       .  D
C1975      H1987   1.084       .  S
C1976      C1977   1.492       .  S
C1976      H1988   1.085       .  S
C1977      C1978   1.406       .  A
C1977      C1982   1.409       .  A
C1978      C1979   1.400       .  A
C1978      H1989   1.084       .  S
C1979      C1980   1.404       .  A
C1979      H1990   1.083       .  S
C1980      C1981   1.404       .  A
C1981      C1982   1.399       .  A
C1981      H1991   1.083       .  S
C1982      H1992   1.080       .  S
C1993      C1994   1.405       .  A
C1993      C1998   1.405       .  A
C1994      C1995   1.398       .  A
C1994      H2007   1.083       .  S
C1995      C1996   1.404       .  A
C1995      H2008   1.083       .  S
C1996      C1997   1.409       .  A
C1996      C1999   1.489       .  S
C1997      C1998   1.398       .  A
C1997      H2009   1.081       .  S
C1998      H2010   1.083       .  S
C1999      C2000   1.349       .  D
C1999      H2011   1.083       .  S
C2000      C2001   1.491       .  S
C2000      H2012   1.084       .  S
C2001      C2002   1.405       .  A
C2001      C2006   1.409       .  A
C2002      C2003   1.398       .  A
C2002      H2013   1.083       .  S
C2003      C2004   1.404       .  A
C2003      H2014   1.083       .  S
C2004      C2005   1.406       .  A
C2005      C2006   1.398       .  A
C2005      H2015   1.083       .  S
C2006      H2016   1.080       .  S
C2017      C2018   1.406       .  A
C2017      C2022   1.406       .  A
C2018      C2019   1.400       .  A
C2018      H2031   1.083       .  S
C2019      C2020   1.404       .  A
C2019      H2032   1.083       .  S
C2020      C2021   1.408       .  A
C2020      C2023   1.489       .  S
C2021      C2022   1.401       .  A
C2021      H2033   1.082       .  S
C2022      H2034   1.083       .  S
C2023      C2024   1.350       .  D
C2023      H2035   1.083       .  S
C2024      C2025   1.494       .  S
C2024      H2036   1.086       .  S
C2025      C2026   1.407       .  A
C2025      C2030   1.409       .  A
C2026      C2027   1.401       .  A
C2026      H2037   1.083       .  S
C2027      C2028   1.403       .  A
C2027      H2038   1.083       .  S
C2028      C2029   1.404       .  A
C2029      C2030   1.398       .  A
C2029      H2039   1.083       .  S
C2030      H2040   1.080       .  S
C2041      C2042   1.404       .  A
C2041      C2046   1.404       .  A
C2042      C2043   1.398       .  A
C2042      H2055   1.082       .  S
C2043      C2044   1.405       .  A
C2043      H2056   1.083       .  S
C2044      C2045   1.409       .  A
C2044      C2047   1.491       .  S
C2045      C2046   1.399       .  A
C2045      H2057   1.080       .  S
C2046      H2058   1.082       .  S
C2047      C2048   1.349       .  D
C2047      H2059   1.084       .  S
C2048      C2049   1.490       .  S
C2048      H2060   1.084       .  S
C2049      C2050   1.405       .  A
C2049      C2054   1.410       .  A
C2050      C2051   1.398       .  A
C2050      H2061   1.083       .  S
C2051      C2052   1.403       .  A
C2051      H2062   1.082       .  S
C2052      C2053   1.403       .  A
C2053      C2054   1.399       .  A
C2053      H2063   1.082       .  S
C2054      H2064   1.081       .  S
C2065      C2066   1.406       .  A
C2065      C2070   1.408       .  A
C2066      C2067   1.399       .  A
C2066      H2079   1.083       .  S
C2067      C2068   1.405       .  A
C2067      H2080   1.083       .  S
C2068      C2069   1.410       .  A
C2068      C2071   1.495       .  S
C2069      C2070   1.404       .  A
C2069      H2081   1.081       .  S
C2070      H2082   1.083       .  S
C2071      C2072   1.349       .  D
C2071      H2083   1.086       .  S
C2072      C2073   1.491       .  S
C2072      H2084   1.084       .  S
C2073      C2074   1.402       .  A
C2073      C2078   1.410       .  A
C2074      C2075   1.397       .  A
C2074      H2085   1.083       .  S
C2075      C2076   1.404       .  A
C2075      H2086   1.083       .  S
C2076      C2077   1.404       .  A
C2077      C2078   1.405       .  A
C2077      H2087   1.083       .  S
C2078      H2088   1.082       .  S
C2089      C2090   1.403       .  A
C2089      C2094   1.401       .  A
C2090      C2091   1.403       .  A
C2090      H2103   1.083       .  S
C2091      C2092   1.407       .  A
C2091      H2104   1.083       .  S
C2092      C2093   1.409       .  A
C2092      C2095   1.493       .  S
C2093      C2094   1.395       .  A
C2093      H2105   1.081       .  S
C2094      H2106   1.083       .  S
C2095      C2096   1.350   1_556  D
C2095      H2107   1.084       .  S
C2096      C2097   1.489       .  S
C2096      H2108   1.084       .  S
C2097      C2098   1.404       .  A
C2097      C2102   1.410       .  A
C2098      C2099   1.393       .  A
C2098      H2109   1.083       .  S
C2099      C2100   1.400       .  A
C2099      H2110   1.084       .  S
C2100      C2101   1.404       .  A
C2101      C2102   1.405       .  A
C2101      H2111   1.083       .  S
C2102      H2112   1.081       .  S
C2113      C2114   1.403       .  A
C2113      C2118   1.402       .  A
C2114      C2115   1.402       .  A
C2114      H2127   1.083       .  S
C2115      C2116   1.407       .  A
C2115      H2128   1.083       .  S
C2116      C2117   1.409       .  A
C2116      C2119   1.493       .  S
C2117      C2118   1.395       .  A
C2117      H2129   1.080       .  S
C2118      H2130   1.083       .  S
C2119      C2120   1.349       .  D
C2119      H2131   1.086       .  S
C2120      C2121   1.484       .  S
C2120      H2132   1.083       .  S
C2121      C2122   1.402       .  A
C2121      C2126   1.407       .  A
C2122      C2123   1.396       .  A
C2122      H2133   1.084       .  S
C2123      C2124   1.405       .  A
C2123      H2134   1.083       .  S
C2124      C2125   1.407       .  A
C2125      C2126   1.402       .  A
C2125      H2135   1.083       .  S
C2126      H2136   1.082       .  S
C2137      C2138   1.406       .  A
C2137      C2142   1.404       .  A
C2138      C2139   1.405       .  A
C2138      H2151   1.082       .  S
C2139      C2140   1.406       .  A
C2139      H2152   1.083       .  S
C2140      C2141   1.406       .  A
C2140      C2143   1.491       .  S
C2141      C2142   1.396       .  A
C2141      H2153   1.083       .  S
C2142      H2154   1.083       .  S
C2143      C2144   1.349   1_556  D
C2143      H2155   1.085       .  S
C2144      C2145   1.491       .  S
C2144      H2156   1.087   1_554  S
C2145      C2146   1.404       .  A
C2145      C2150   1.411       .  A
C2146      C2147   1.395       .  A
C2146      H2157   1.084       .  S
C2147      C2148   1.401       .  A
C2147      H2158   1.084       .  S
C2148      C2149   1.405       .  A
C2149      C2150   1.407       .  A
C2149      H2159   1.083       .  S
C2150      H2160   1.081       .  S
C2161      C2162   1.402       .  A
C2161      C2166   1.402       .  A
C2162      C2163   1.397       .  A
C2162      H2175   1.083       .  S
C2163      C2164   1.406       .  A
C2163      H2176   1.083       .  S
C2164      C2165   1.411       .  A
C2164      C2167   1.493       .  S
C2165      C2166   1.401       .  A
C2165      H2177   1.080       .  S
C2166      H2178   1.083       .  S
C2167      C2168   1.350       .  D
C2167      H2179   1.084       .  S
C2168      C2169   1.493       .  S
C2168      H2180   1.083       .  S
C2169      C2170   1.406       .  A
C2169      C2174   1.410       .  A
C2170      C2171   1.400       .  A
C2170      H2181   1.083       .  S
C2171      C2172   1.403       .  A
C2171      H2182   1.083       .  S
C2172      C2173   1.403       .  A
C2173      C2174   1.397       .  A
C2173      H2183   1.082       .  S
C2174      H2184   1.080       .  S
C2185      C2186   1.406       .  A
C2185      C2190   1.404       .  A
C2186      C2187   1.396       .  A
C2186      H2199   1.083       .  S
C2187      C2188   1.408       .  A
C2187      H2200   1.080       .  S
C2188      C2189   1.408       .  A
C2188      C2191   1.495       .  S
C2189      C2190   1.404       .  A
C2189      H2201   1.083       .  S
C2190      H2202   1.082       .  S
C2191      C2192   1.352       .  D
C2191      H2203   1.085       .  S
C2192      C2193   1.491       .  S
C2192      H2204   1.083       .  S
C2193      C2194   1.405       .  A
C2193      C2198   1.408       .  A
C2194      C2195   1.400       .  A
C2194      H2205   1.083       .  S
C2195      C2196   1.405       .  A
C2195      H2206   1.083       .  S
C2196      C2197   1.406       .  A
C2197      C2198   1.400       .  A
C2197      H2207   1.083       .  S
C2198      H2208   1.081       .  S
C2209      C2210   1.407       .  A
C2209      C2214   1.406       .  A
C2210      C2211   1.401       .  A
C2210      H2223   1.083       .  S
C2211      C2212   1.404       .  A
C2211      H2224   1.083       .  S
C2212      C2213   1.409       .  A
C2212      C2215   1.493       .  S
C2213      C2214   1.401       .  A
C2213      H2225   1.081       .  S
C2214      H2226   1.083       .  S
C2215      C2216   1.350       .  D
C2215      H2227   1.084       .  S
C2216      C2217   1.492       .  S
C2216      H2228   1.085       .  S
C2217      C2218   1.403       .  A
C2217      C2222   1.412       .  A
C2218      C2219   1.395       .  A
C2218      H2229   1.083       .  S
C2219      C2220   1.402       .  A
C2219      H2230   1.084       .  S
C2220      C2221   1.403       .  A
C2221      C2222   1.406       .  A
C2221      H2231   1.083       .  S
C2222      H2232   1.081       .  S
C2233      C2234   1.406       .  A
C2233      C2238   1.404       .  A
C2234      C2235   1.401       .  A
C2234      H2247   1.082       .  S
C2235      C2236   1.402       .  A
C2235      H2248   1.083       .  S
C2236      C2237   1.406       .  A
C2236      C2239   1.483       .  S
C2237      C2238   1.398       .  A
C2237      H2249   1.083       .  S
C2238      H2250   1.082       .  S
C2239      C2240   1.345       .  D
C2239      H2251   1.086       .  S
C2240      C2241   1.483       .  S
C2240      H2252   1.087       .  S
C2241      C2242   1.401       .  A
C2241      C2246   1.407       .  A
C2242      C2243   1.396       .  A
C2242      H2253   1.083       .  S
C2243      C2244   1.405       .  A
C2243      H2254   1.082       .  S
C2244      C2245   1.406       .  A
C2245      C2246   1.403       .  A
C2245      H2255   1.082       .  S
C2246      H2256   1.082       .  S
C2257      C2258   1.403       .  A
C2257      C2262   1.404       .  A
C2258      C2259   1.402       .  A
C2258      H2271   1.083       .  S
C2259      C2260   1.407       .  A
C2259      H2272   1.083       .  S
C2260      C2261   1.408       .  A
C2260      C2263   1.492       .  S
C2261      C2262   1.397       .  A
C2261      H2273   1.080       .  S
C2262      H2274   1.083       .  S
C2263      C2264   1.350       .  D
C2263      H2275   1.085       .  S
C2264      C2265   1.488       .  S
C2264      H2276   1.084       .  S
C2265      C2266   1.404       .  A
C2265      C2270   1.408       .  A
C2266      C2267   1.398       .  A
C2266      H2277   1.083       .  S
C2267      C2268   1.405       .  A
C2267      H2278   1.083       .  S
C2268      C2269   1.406       .  A
C2269      C2270   1.400       .  A
C2269      H2279   1.083       .  S
C2270      H2280   1.081       .  S
C2281      C2282   1.402       .  A
C2281      C2286   1.406       .  A
C2282      C2283   1.394       .  A
C2282      H2295   1.083       .  S
C2283      C2284   1.403       .  A
C2283      H2296   1.084       .  S
C2284      C2285   1.410       .  A
C2284      C2287   1.488   1_655  S
C2285      C2286   1.405       .  A
C2285      H2297   1.082       .  S
C2286      H2298   1.083       .  S
C2287      C2288   1.349       .  D
C2287      H2299   1.086       .  S
C2288      C2289   1.491       .  S
C2288      H2300   1.085       .  S
C2289      C2290   1.405       .  A
C2289      C2294   1.408       .  A
C2290      C2291   1.402       .  A
C2290      H2301   1.083       .  S
C2291      C2292   1.405       .  A
C2291      H2302   1.083       .  S
C2292      C2293   1.403       .  A
C2293      C2294   1.397       .  A
C2293      H2303   1.083       .  S
C2294      H2304   1.082       .  S
C2305      C2306   1.404       .  A
C2305      C2310   1.402       .  A
C2306      C2307   1.404       .  A
C2306      H2319   1.083       .  S
C2307      C2308   1.406       .  A
C2307      H2320   1.083       .  S
C2308      C2309   1.408       .  A
C2308      C2311   1.491   1_655  S
C2309      C2310   1.398       .  A
C2309      H2321   1.082       .  S
C2310      H2322   1.083       .  S
C2311      C2312   1.348       .  D
C2311      H2323   1.084       .  S
C2312      C2313   1.491       .  S
C2312      H2324   1.086       .  S
C2313      C2314   1.403       .  A
C2313      C2318   1.411       .  A
C2314      C2315   1.395       .  A
C2314      H2325   1.083       .  S
C2315      C2316   1.403       .  A
C2315      H2326   1.083       .  S
C2316      C2317   1.405       .  A
C2317      C2318   1.406       .  A
C2317      H2327   1.083       .  S
C2318      H2328   1.081       .  S
C2329      C2330   1.403       .  A
C2329      C2334   1.403       .  A
C2330      C2331   1.396       .  A
C2330      H2343   1.083       .  S
C2331      C2332   1.404       .  A
C2331      H2344   1.083       .  S
C2332      C2333   1.410       .  A
C2332      C2335   1.489       .  S
C2333      C2334   1.400       .  A
C2333      H2345   1.081       .  S
C2334      H2346   1.082       .  S
C2335      C2336   1.348       .  D
C2335      H2347   1.085       .  S
C2336      C2337   1.489       .  S
C2336      H2348   1.084       .  S
C2337      C2338   1.405       .  A
C2337      C2342   1.409       .  A
C2338      C2339   1.398       .  A
C2338      H2349   1.083       .  S
C2339      C2340   1.402       .  A
C2339      H2350   1.083       .  S
C2340      C2341   1.402       .  A
C2341      C2342   1.399       .  A
C2341      H2351   1.083       .  S
C2342      H2352   1.081       .  S
C2353      C2354   1.401       .  A
C2353      C2358   1.403       .  A
C2354      C2355   1.396       .  A
C2354      H2367   1.083       .  S
C2355      C2356   1.405       .  A
C2355      H2368   1.083       .  S
C2356      C2357   1.412       .  A
C2356      C2359   1.493       .  S
C2357      C2358   1.401       .  A
C2357      H2369   1.080       .  S
C2358      H2370   1.083       .  S
C2359      C2360   1.349       .  D
C2359      H2371   1.085       .  S
C2360      C2361   1.491       .  S
C2360      H2372   1.083       .  S
C2361      C2362   1.404       .  A
C2361      C2366   1.411       .  A
C2362      C2363   1.398       .  A
C2362      H2373   1.083       .  S
C2363      C2364   1.403       .  A
C2363      H2374   1.083       .  S
C2364      C2365   1.402       .  A
C2365      C2366   1.401       .  A
C2365      H2375   1.083       .  S
C2366      H2376   1.081       .  S
C2377      C2378   1.401       .  A
C2377      C2382   1.407       .  A
C2378      C2379   1.394       .  A
C2378      H2391   1.084       .  S
C2379      C2380   1.405       .  A
C2379      H2392   1.084       .  S
C2380      C2381   1.413       .  A
C2380      C2383   1.497       .  S
C2381      C2382   1.411       .  A
C2381      H2393   1.081       .  S
C2382      H2394   1.083       .  S
C2383      C2384   1.353       .  D
C2383      H2395   1.086       .  S
C2384      C2385   1.499       .  S
C2384      H2396   1.084       .  S
C2385      C2386   1.408       .  A
C2385      C2390   1.407       .  A
C2386      C2387   1.409       .  A
C2386      H2397   1.083       .  S
C2387      C2388   1.407       .  A
C2387      H2398   1.082       .  S
C2388      C2389   1.404       .  A
C2389      C2390   1.397       .  A
C2389      H2399   1.083       .  S
C2390      H2400   1.082       .  S
C2401      C2402   1.407       .  A
C2401      C2406   1.408       .  A
C2402      C2403   1.399       .  A
C2402      H2415   1.083       .  S
C2403      C2404   1.404       .  A
C2403      H2416   1.083       .  S
C2404      C2405   1.410       .  A
C2404      C2407   1.495       .  S
C2405      C2406   1.405       .  A
C2405      H2417   1.081       .  S
C2406      H2418   1.083       .  S
C2407      C2408   1.350       .  D
C2407      H2419   1.086       .  S
C2408      C2409   1.493       .  S
C2408      H2420   1.085       .  S
C2409      C2410   1.403       .  A
C2409      C2414   1.410       .  A
C2410      C2411   1.400       .  A
C2410      H2421   1.083       .  S
C2411      C2412   1.405       .  A
C2411      H2422   1.083       .  S
C2412      C2413   1.405       .  A
C2413      C2414   1.405       .  A
C2413      H2423   1.082       .  S
C2414      H2424   1.082       .  S
C2425      C2426   1.404       .  A
C2425      C2430   1.404       .  A
C2426      C2427   1.401       .  A
C2426      H2439   1.083       .  S
C2427      C2428   1.406       .  A
C2427      H2440   1.083       .  S
C2428      C2429   1.408       .  A
C2428      C2431   1.491       .  S
C2429      C2430   1.400       .  A
C2429      H2441   1.081       .  S
C2430      H2442   1.083       .  S
C2431      C2432   1.350       .  D
C2431      H2443   1.085       .  S
C2432      C2433   1.492       .  S
C2432      H2444   1.085       .  S
C2433      C2434   1.406       .  A
C2433      C2438   1.408       .  A
C2434      C2435   1.403       .  A
C2434      H2445   1.083       .  S
C2435      C2436   1.405       .  A
C2435      H2446   1.082       .  S
C2436      C2437   1.404       .  A
C2437      C2438   1.398       .  A
C2437      H2447   1.083       .  S
C2438      H2448   1.081       .  S
C2449      C2450   1.402       .  A
C2449      C2454   1.403       .  A
C2450      C2451   1.394       .  A
C2450      H2463   1.083       .  S
C2451      C2452   1.403       .  A
C2451      H2464   1.084       .  S
C2452      C2453   1.410       .  A
C2452      C2455   1.488       .  S
C2453      C2454   1.401       .  A
C2453      H2465   1.081       .  S
C2454      H2466   1.083       .  S
C2455      C2456   1.348       .  D
C2455      H2467   1.085       .  S
C2456      C2457   1.490       .  S
C2456      H2468   1.085       .  S
C2457      C2458   1.405       .  A
C2457      C2462   1.410       .  A
C2458      C2459   1.398       .  A
C2458      H2469   1.083       .  S
C2459      C2460   1.402       .  A
C2459      H2470   1.083       .  S
C2460      C2461   1.401       .  A
C2461      C2462   1.398       .  A
C2461      H2471   1.083       .  S
C2462      H2472   1.081       .  S
C2473      C2474   1.403       .  A
C2473      C2478   1.403       .  A
C2474      C2475   1.404       .  A
C2474      H2487   1.083       .  S
C2475      C2476   1.408       .  A
C2475      H2488   1.083       .  S
C2476      C2477   1.408       .  A
C2476      C2479   1.495       .  S
C2477      C2478   1.397       .  A
C2477      H2489   1.080       .  S
C2478      H2490   1.083       .  S
C2479      C2480   1.352       .  D
C2479      H2491   1.085       .  S
C2480      C2481   1.490       .  S
C2480      H2492   1.083       .  S
C2481      C2482   1.405       .  A
C2481      C2486   1.407       .  A
C2482      C2483   1.400       .  A
C2482      H2493   1.083       .  S
C2483      C2484   1.406       .  A
C2483      H2494   1.083       .  S
C2484      C2485   1.407       .  A
C2485      C2486   1.401       .  A
C2485      H2495   1.083       .  S
C2486      H2496   1.082       .  S
C2497      C2498   1.405       .  A
C2497      C2502   1.408       .  A
C2498      C2499   1.396       .  A
C2498      H2511   1.083       .  S
C2499      C2500   1.403       .  A
C2499      H2512   1.083       .  S
C2500      C2501   1.409       .  A
C2500      C2503   1.489       .  S
C2501      C2502   1.404       .  A
C2501      H2513   1.082       .  S
C2502      H2514   1.083       .  S
C2503      C2504   1.349       .  D
C2503      H2515   1.084       .  S
C2504      C2505   1.494       .  S
C2504      H2516   1.085       .  S
C2505      C2506   1.408       .  A
C2505      C2510   1.406       .  A
C2506      C2507   1.396       .  A
C2506      H2517   1.081       .  S
C2507      C2508   1.404       .  A
C2507      H2518   1.083       .  S
C2508      C2509   1.406       .  A
C2509      C2510   1.403       .  A
C2509      H2519   1.082       .  S
C2510      H2520   1.083       .  S
C2521      C2522   1.406       .  A
C2521      C2526   1.406       .  A
C2522      C2523   1.400       .  A
C2522      H2535   1.083       .  S
C2523      C2524   1.405       .  A
C2523      H2536   1.083       .  S
C2524      C2525   1.410       .  A
C2524      C2527   1.496       .  S
C2525      C2526   1.403       .  A
C2525      H2537   1.081       .  S
C2526      H2538   1.083       .  S
C2527      C2528   1.350       .  D
C2527      H2539   1.085       .  S
C2528      C2529   1.494       .  S
C2528      H2540   1.084       .  S
C2529      C2530   1.404       .  A
C2529      C2534   1.410       .  A
C2530      C2531   1.399       .  A
C2530      H2541   1.083       .  S
C2531      C2532   1.405       .  A
C2531      H2542   1.083       .  S
C2532      C2533   1.405       .  A
C2533      C2534   1.404       .  A
C2533      H2543   1.082       .  S
C2534      H2544   1.082       .  S
C2545      C2546   1.406       .  A
C2545      C2550   1.407       .  A
C2546      C2547   1.400       .  A
C2546      H2559   1.083       .  S
C2547      C2548   1.406       .  A
C2547      H2560   1.083       .  S
C2548      C2549   1.410       .  A
C2548      C2551   1.498       .  S
C2549      C2550   1.404       .  A
C2549      H2561   1.080       .  S
C2550      H2562   1.083       .  S
C2551      C2552   1.351       .  D
C2551      H2563   1.086       .  S
C2552      C2553   1.493       .  S
C2552      H2564   1.084       .  S
C2553      C2554   1.404       .  A
C2553      C2558   1.411       .  A
C2554      C2555   1.399       .  A
C2554      H2565   1.083       .  S
C2555      C2556   1.402       .  A
C2555      H2566   1.083       .  S
C2556      C2557   1.403       .  A
C2557      C2558   1.405       .  A
C2557      H2567   1.083       .  S
C2558      H2568   1.082       .  S
C2569      C2570   1.406       .  A
C2569      C2574   1.404       .  A
C2570      C2571   1.400       .  A
C2570      H2583   1.083       .  S
C2571      C2572   1.410       .  A
C2571      H2584   1.079       .  S
C2572      C2573   1.405       .  A
C2572      C2575   1.494       .  S
C2573      C2574   1.398       .  A
C2573      H2585   1.083       .  S
C2574      H2586   1.083       .  S
C2575      C2576   1.350       .  D
C2575      H2587   1.083       .  S
C2576      C2577   1.492       .  S
C2576      H2588   1.082       .  S
C2577      C2578   1.405       .  A
C2577      C2582   1.409       .  A
C2578      C2579   1.399       .  A
C2578      H2589   1.083       .  S
C2579      C2580   1.405       .  A
C2579      H2590   1.083       .  S
C2580      C2581   1.405       .  A
C2581      C2582   1.399       .  A
C2581      H2591   1.083       .  S
C2582      H2592   1.080       .  S
C2593      C2594   1.405       .  A
C2593      C2598   1.406       .  A
C2594      C2595   1.398       .  A
C2594      H2607   1.083       .  S
C2595      C2596   1.404       .  A
C2595      H2608   1.083       .  S
C2596      C2597   1.410       .  A
C2596      C2599   1.492       .  S
C2597      C2598   1.401       .  A
C2597      H2609   1.080       .  S
C2598      H2610   1.083       .  S
C2599      C2600   1.349       .  D
C2599      H2611   1.082       .  S
C2600      C2601   1.494       .  S
C2600      H2612   1.083       .  S
C2601      C2602   1.404       .  A
C2601      C2606   1.411       .  A
C2602      C2603   1.397       .  A
C2602      H2613   1.083       .  S
C2603      C2604   1.405       .  A
C2603      H2614   1.083       .  S
C2604      C2605   1.405       .  A
C2605      C2606   1.401       .  A
C2605      H2615   1.083       .  S
C2606      H2616   1.079       .  S
C2617      C2618   1.406       .  A
C2617      C2622   1.409       .  A
C2618      C2619   1.398       .  A
C2618      H2631   1.083       .  S
C2619      C2620   1.404       .  A
C2619      H2632   1.083       .  S
C2620      C2621   1.409       .  A
C2620      C2623   1.494       .  S
C2621      C2622   1.407       .  A
C2621      H2633   1.082       .  S
C2622      H2634   1.083       .  S
C2623      C2624   1.354       .  D
C2623      H2635   1.083       .  S
C2624      C2625   1.501       .  S
C2624      H2636   1.085       .  S
C2625      C2626   1.410       .  A
C2625      C2630   1.409       .  A
C2626      C2627   1.408       .  A
C2626      H2637   1.083       .  S
C2627      C2628   1.404       .  A
C2627      H2638   1.083       .  S
C2628      C2629   1.404       .  A
C2629      C2630   1.397       .  A
C2629      H2639   1.083       .  S
C2630      H2640   1.080       .  S
C2641      C2642   1.406       .  A
C2641      C2646   1.405       .  A
C2642      C2643   1.400       .  A
C2642      H2655   1.083       .  S
C2643      C2644   1.406       .  A
C2643      H2656   1.083       .  S
C2644      C2645   1.411       .  A
C2644      C2647   1.498       .  S
C2645      C2646   1.401       .  A
C2645      H2657   1.079       .  S
C2646      H2658   1.083       .  S
C2647      C2648   1.351       .  D
C2647      H2659   1.084       .  S
C2648      C2649   1.493       .  S
C2648      H2660   1.082       .  S
C2649      C2650   1.404       .  A
C2649      C2654   1.409       .  A
C2650      C2651   1.398       .  A
C2650      H2661   1.083       .  S
C2651      C2652   1.405       .  A
C2651      H2662   1.083       .  S
C2652      C2653   1.408       .  A
C2653      C2654   1.403       .  A
C2653      H2663   1.083       .  S
C2654      H2664   1.081       .  S
C2665      C2666   1.406       .  A
C2665      C2670   1.405       .  A
C2666      C2667   1.401       .  A
C2666      H2679   1.083       .  S
C2667      C2668   1.405       .  A
C2667      H2680   1.083       .  S
C2668      C2669   1.408       .  A
C2668      C2671   1.491       .  S
C2669      C2670   1.396       .  A
C2669      H2681   1.081       .  S
C2670      H2682   1.083       .  S
C2671      C2672   1.350       .  D
C2671      H2683   1.083       .  S
C2672      C2673   1.492       .  S
C2672      H2684   1.084       .  S
C2673      C2674   1.405       .  A
C2673      C2678   1.410       .  A
C2674      C2675   1.396       .  A
C2674      H2685   1.084       .  S
C2675      C2676   1.404       .  A
C2675      H2686   1.083       .  S
C2676      C2677   1.406       .  A
C2677      C2678   1.402       .  A
C2677      H2687   1.083       .  S
C2678      H2688   1.079       .  S
C2689      C2690   1.403       .  A
C2689      C2694   1.404       .  A
C2690      C2691   1.399       .  A
C2690      H2703   1.083       .  S
C2691      C2692   1.404       .  A
C2691      H2704   1.083       .  S
C2692      C2693   1.411       .  A
C2692      C2695   1.494       .  S
C2693      C2694   1.404       .  A
C2693      H2705   1.082       .  S
C2694      H2706   1.083       .  S
C2695      C2696   1.350       .  D
C2695      H2707   1.084       .  S
C2696      C2697   1.496       .  S
C2696      H2708   1.085       .  S
C2697      C2698   1.405       .  A
C2697      C2702   1.410       .  A
C2698      C2699   1.399       .  A
C2698      H2709   1.083       .  S
C2699      C2700   1.406       .  A
C2699      H2710   1.083       .  S
C2700      C2701   1.408       .  A
C2701      C2702   1.404       .  A
C2701      H2711   1.083       .  S
C2702      H2712   1.081       .  S
C2713      C2714   1.402       .  A
C2713      C2718   1.402       .  A
C2714      C2715   1.402       .  A
C2714      H2727   1.082       .  S
C2715      C2716   1.407       .  A
C2715      H2728   1.083       .  S
C2716      C2717   1.408       .  A
C2716      C2719   1.490       .  S
C2717      C2718   1.395       .  A
C2717      H2729   1.081       .  S
C2718      H2730   1.083       .  S
C2719      C2720   1.349       .  D
C2719      H2731   1.084       .  S
C2720      C2721   1.489       .  S
C2720      H2732   1.085       .  S
C2721      C2722   1.404       .  A
C2721      C2726   1.410       .  A
C2722      C2723   1.396       .  A
C2722      H2733   1.083       .  S
C2723      C2724   1.402       .  A
C2723      H2734   1.082       .  S
C2724      C2725   1.403       .  A
C2725      C2726   1.400       .  A
C2725      H2735   1.083       .  S
C2726      H2736   1.080       .  S
C2737      C2738   1.407       .  A
C2737      C2742   1.407       .  A
C2738      C2739   1.407       .  A
C2738      H2751   1.082       .  S
C2739      C2740   1.407       .  A
C2739      H2752   1.083       .  S
C2740      C2741   1.403       .  A
C2740      C2743   1.489       .  S
C2741      C2742   1.396       .  A
C2741      H2753   1.083       .  S
C2742      H2754   1.083       .  S
C2743      C2744   1.350       .  D
C2743      H2755   1.086       .  S
C2744      C2745   1.486       .  S
C2744      H2756   1.087       .  S
C2745      C2746   1.404       .  A
C2745      C2750   1.406       .  A
C2746      C2747   1.400       .  A
C2746      H2757   1.083       .  S
C2747      C2748   1.405       .  A
C2747      H2758   1.083       .  S
C2748      C2749   1.408       .  A
C2749      C2750   1.403       .  A
C2749      H2759   1.083       .  S
C2750      H2760   1.083       .  S
C2761      C2762   1.401       .  A
C2761      C2766   1.406       .  A
C2762      C2763   1.393       .  A
C2762      H2775   1.084       .  S
C2763      C2764   1.404       .  A
C2763      H2776   1.083       .  S
C2764      C2765   1.412       .  A
C2764      C2767   1.493       .  S
C2765      C2766   1.409       .  A
C2765      H2777   1.081       .  S
C2766      H2778   1.083       .  S
C2767      C2768   1.350       .  D
C2767      H2779   1.086       .  S
C2768      C2769   1.494       .  S
C2768      H2780   1.084       .  S
C2769      C2770   1.407       .  A
C2769      C2774   1.406       .  A
C2770      C2771   1.407       .  A
C2770      H2781   1.083       .  S
C2771      C2772   1.407       .  A
C2771      H2782   1.083       .  S
C2772      C2773   1.404       .  A
C2773      C2774   1.395       .  A
C2773      H2783   1.083       .  S
C2774      H2784   1.083       .  S
C2785      C2786   1.404       .  A
C2785      C2790   1.404       .  A
C2786      C2787   1.402       .  A
C2786      H2799   1.083       .  S
C2787      C2788   1.405       .  A
C2787      H2800   1.083       .  S
C2788      C2789   1.407       .  A
C2788      C2791   1.488       .  S
C2789      C2790   1.401       .  A
C2789      H2801   1.083       .  S
C2790      H2802   1.083       .  S
C2791      C2792   1.347       .  D
C2791      H2803   1.086       .  S
C2792      C2793   1.489       .  S
C2792      H2804   1.087       .  S
C2793      C2794   1.405       .  A
C2793      C2798   1.408       .  A
C2794      C2795   1.402       .  A
C2794      H2805   1.083       .  S
C2795      C2796   1.402       .  A
C2795      H2806   1.083       .  S
C2796      C2797   1.403       .  A
C2797      C2798   1.401       .  A
C2797      H2807   1.083       .  S
C2798      H2808   1.082       .  S
C2809      C2810   1.402       .  A
C2809      C2814   1.401       .  A
C2810      C2811   1.405       .  A
C2810      H2823   1.083       .  S
C2811      C2812   1.408       .  A
C2811      H2824   1.083       .  S
C2812      C2813   1.408       .  A
C2812      C2815   1.493       .  S
C2813      C2814   1.394       .  A
C2813      H2825   1.081       .  S
C2814      H2826   1.083       .  S
C2815      C2816   1.351       .  D
C2815      H2827   1.083       .  S
C2816      C2817   1.493       .  S
C2816      H2828   1.084       .  S
C2817      C2818   1.406       .  A
C2817      C2822   1.411       .  A
C2818      C2819   1.395       .  A
C2818      H2829   1.083       .  S
C2819      C2820   1.400       .  A
C2819      H2830   1.083       .  S
C2820      C2821   1.403       .  A
C2821      C2822   1.403       .  A
C2821      H2831   1.083       .  S
C2822      H2832   1.080       .  S
C2833      C2834   1.405       .  A
C2833      C2838   1.405       .  A
C2834      C2835   1.397       .  A
C2834      H2847   1.083       .  S
C2835      C2836   1.404       .  A
C2835      H2848   1.083       .  S
C2836      C2837   1.409       .  A
C2836      C2839   1.490       .  S
C2837      C2838   1.399       .  A
C2837      H2849   1.080       .  S
C2838      H2850   1.083       .  S
C2839      C2840   1.348       .  D
C2839      H2851   1.084       .  S
C2840      C2841   1.488       .  S
C2840      H2852   1.083       .  S
C2841      C2842   1.404       .  A
C2841      C2846   1.409       .  A
C2842      C2843   1.398       .  A
C2842      H2853   1.083       .  S
C2843      C2844   1.406       .  A
C2843      H2854   1.083       .  S
C2844      C2845   1.405       .  A
C2845      C2846   1.398       .  A
C2845      H2855   1.083       .  S
C2846      H2856   1.081       .  S
C2857      C2858   1.407       .  A
C2857      C2862   1.407       .  A
C2858      C2859   1.399       .  A
C2858      H2871   1.083       .  S
C2859      C2860   1.403       .  A
C2859      H2872   1.083       .  S
C2860      C2861   1.408       .  A
C2860      C2863   1.490       .  S
C2861      C2862   1.402       .  A
C2861      H2873   1.082       .  S
C2862      H2874   1.083       .  S
C2863      C2864   1.347       .  D
C2863      H2875   1.087       .  S
C2864      C2865   1.487       .  S
C2864      H2876   1.085       .  S
C2865      C2866   1.402       .  A
C2865      C2870   1.409       .  A
C2866      C2867   1.398       .  A
C2866      H2877   1.083       .  S
C2867      C2868   1.404       .  A
C2867      H2878   1.083       .  S
C2868      C2869   1.404       .  A
C2869      C2870   1.403       .  A
C2869      H2879   1.083       .  S
C2870      H2880   1.083       .  S
C2881      C2882   1.406       .  A
C2881      C2886   1.405       .  A
C2882      C2883   1.396       .  A
C2882      H2895   1.083       .  S
C2883      C2884   1.403       .  A
C2883      H2896   1.083       .  S
C2884      C2885   1.410       .  A
C2884      C2887   1.489       .  S
C2885      C2886   1.402       .  A
C2885      H2897   1.081       .  S
C2886      H2898   1.083       .  S
C2887      C2888   1.348       .  D
C2887      H2899   1.084       .  S
C2888      C2889   1.491       .  S
C2888      H2900   1.085       .  S
C2889      C2890   1.404       .  A
C2889      C2894   1.409       .  A
C2890      C2891   1.398       .  A
C2890      H2901   1.083       .  S
C2891      C2892   1.405       .  A
C2891      H2902   1.083       .  S
C2892      C2893   1.406       .  A
C2893      C2894   1.400       .  A
C2893      H2903   1.083       .  S
C2894      H2904   1.081       .  S
C2905      C2906   1.407       .  A
C2905      C2910   1.407       .  A
C2906      C2907   1.401       .  A
C2906      H2919   1.083       .  S
C2907      C2908   1.402       .  A
C2907      H2920   1.083       .  S
C2908      C2909   1.408       .  A
C2908      C2911   1.490       .  S
C2909      C2910   1.403       .  A
C2909      H2921   1.083       .  S
C2910      H2922   1.083       .  S
C2911      C2912   1.345       .  D
C2911      H2923   1.086       .  S
C2912      C2913   1.489       .  S
C2912      H2924   1.087       .  S
C2913      C2914   1.399       .  A
C2913      C2918   1.410       .  A
C2914      C2915   1.395       .  A
C2914      H2925   1.084       .  S
C2915      C2916   1.408       .  A
C2915      H2926   1.083       .  S
C2916      C2917   1.408       .  A
C2917      C2918   1.409       .  A
C2917      H2927   1.081       .  S
C2918      H2928   1.082       .  S
C2929      C2930   1.405       .  A
C2929      C2934   1.406       .  A
C2930      C2931   1.399       .  A
C2930      H2943   1.083       .  S
C2931      C2932   1.405       .  A
C2931      H2944   1.083       .  S
C2932      C2933   1.410       .  A
C2932      C2935   1.495       .  S
C2933      C2934   1.402       .  A
C2933      H2945   1.080       .  S
C2934      H2946   1.083       .  S
C2935      C2936   1.351       .  D
C2935      H2947   1.084       .  S
C2936      C2937   1.494       .  S
C2936      H2948   1.083       .  S
C2937      C2938   1.405       .  A
C2937      C2942   1.409       .  A
C2938      C2939   1.401       .  A
C2938      H2949   1.083       .  S
C2939      C2940   1.406       .  A
C2939      H2950   1.083       .  S
C2940      C2941   1.406       .  A
C2941      C2942   1.400       .  A
C2941      H2951   1.083       .  S
C2942      H2952   1.081       .  S
C2953      C2954   1.405       .  A
C2953      C2958   1.405       .  A
C2954      C2955   1.397       .  A
C2954      H2967   1.083       .  S
C2955      C2956   1.404       .  A
C2955      H2968   1.083       .  S
C2956      C2957   1.411       .  A
C2956      C2959   1.493       .  S
C2957      C2958   1.401       .  A
C2957      H2969   1.080       .  S
C2958      H2970   1.083       .  S
C2959      C2960   1.349       .  D
C2959      H2971   1.083       .  S
C2960      C2961   1.493       .  S
C2960      H2972   1.083       .  S
C2961      C2962   1.404       .  A
C2961      C2966   1.410       .  A
C2962      C2963   1.398       .  A
C2962      H2973   1.083       .  S
C2963      C2964   1.405       .  A
C2963      H2974   1.083       .  S
C2964      C2965   1.406       .  A
C2965      C2966   1.400       .  A
C2965      H2975   1.083       .  S
C2966      H2976   1.080       .  S
C2977      C2978   1.405       .  A
C2977      C2982   1.406       .  A
C2978      C2979   1.397       .  A
C2978      H2991   1.084       .  S
C2979      C2980   1.402       .  A
C2979      H2992   1.083       .  S
C2980      C2981   1.411       .  A
C2980      C2983   1.494       .  S
C2981      C2982   1.408       .  A
C2981      H2993   1.082       .  S
C2982      H2994   1.082       .  S
C2983      C2984   1.352       .  D
C2983      H2995   1.082       .  S
C2984      C2985   1.502       .  S
C2984      H2996   1.085       .  S
C2985      C2986   1.406       .  A
C2985      C2990   1.412       .  A
C2986      C2987   1.402       .  A
C2986      H2997   1.083       .  S
C2987      C2988   1.406       .  A
C2987      H2998   1.083       .  S
C2988      C2989   1.407       .  A
C2989      C2990   1.403       .  A
C2989      H2999   1.083       .  S
C2990      H3000   1.079       .  S
C3001      C3002   1.401       .  A
C3001      C3006   1.403       .  A
C3002      C3003   1.397       .  A
C3002      H3015   1.083       .  S
C3003      C3004   1.405       .  A
C3003      H3016   1.083       .  S
C3004      C3005   1.412       .  A
C3004      C3007   1.493       .  S
C3005      C3006   1.403       .  A
C3005      H3017   1.080       .  S
C3006      H3018   1.083       .  S
C3007      C3008   1.350       .  D
C3007      H3019   1.082       .  S
C3008      C3009   1.496       .  S
C3008      H3020   1.084       .  S
C3009      C3010   1.407       .  A
C3009      C3014   1.412       .  A
C3010      C3011   1.399       .  A
C3010      H3021   1.083       .  S
C3011      C3012   1.401       .  A
C3011      H3022   1.083       .  S
C3012      C3013   1.402       .  A
C3013      C3014   1.400       .  A
C3013      H3023   1.083       .  S
C3014      H3024   1.079       .  S
C3025      C3026   1.406       .  A
C3025      C3030   1.407       .  A
C3026      C3027   1.398       .  A
C3026      H3039   1.083       .  S
C3027      C3028   1.404       .  A
C3027      H3040   1.083       .  S
C3028      C3029   1.410       .  A
C3028      C3031   1.494       .  S
C3029      C3030   1.403       .  A
C3029      H3041   1.081       .  S
C3030      H3042   1.083       .  S
C3031      C3032   1.349       .  D
C3031      H3043   1.086       .  S
C3032      C3033   1.490       .  S
C3032      H3044   1.084       .  S
C3033      C3034   1.403       .  A
C3033      C3038   1.410       .  A
C3034      C3035   1.397       .  A
C3034      H3045   1.083       .  S
C3035      C3036   1.403       .  A
C3035      H3046   1.083       .  S
C3036      C3037   1.404       .  A
C3037      C3038   1.404       .  A
C3037      H3047   1.083       .  S
C3038      H3048   1.082       .  S
C3049      C3050   1.406       .  A
C3049      C3054   1.404       .  A
C3050      C3051   1.405       .  A
C3050      H3063   1.083       .  S
C3051      C3052   1.406       .  A
C3051      H3064   1.083       .  S
C3052      C3053   1.408       .  A
C3052      C3055   1.495       .  S
C3053      C3054   1.398       .  A
C3053      H3065   1.082       .  S
C3054      H3066   1.083       .  S
C3055      C3056   1.349       .  D
C3055      H3067   1.085       .  S
C3056      C3057   1.494   1_565  S
C3056      H3068   1.086       .  S
C3057      C3058   1.404       .  A
C3057      C3062   1.412       .  A
C3058      C3059   1.396       .  A
C3058      H3069   1.083       .  S
C3059      C3060   1.403       .  A
C3059      H3070   1.083       .  S
C3060      C3061   1.406       .  A
C3061      C3062   1.408       .  A
C3061      H3071   1.083       .  S
C3062      H3072   1.081       .  S
C3073      C3074   1.407       .  A
C3073      C3078   1.408       .  A
C3074      C3075   1.405       .  A
C3074      H3087   1.082       .  S
C3075      C3076   1.405       .  A
C3075      H3088   1.083       .  S
C3076      C3077   1.402       .  A
C3076      C3079   1.487       .  S
C3077      C3078   1.397       .  A
C3077      H3089   1.083       .  S
C3078      H3090   1.083       .  S
C3079      C3080   1.348       .  D
C3079      H3091   1.086       .  S
C3080      C3081   1.485       .  S
C3080      H3092   1.087       .  S
C3081      C3082   1.404       .  A
C3081      C3086   1.405       .  A
C3082      C3083   1.401       .  A
C3082      H3093   1.083       .  S
C3083      C3084   1.405       .  A
C3083      H3094   1.083       .  S
C3084      C3085   1.407       .  A
C3085      C3086   1.402       .  A
C3085      H3095   1.083       .  S
C3086      H3096   1.083       .  S
C3097      C3098   1.403       .  A
C3097      C3102   1.405       .  A
C3098      C3099   1.396       .  A
C3098      H3111   1.083       .  S
C3099      C3100   1.403       .  A
C3099      H3112   1.083       .  S
C3100      C3101   1.410       .  A
C3100      C3103   1.489       .  S
C3101      C3102   1.404       .  A
C3101      H3113   1.081       .  S
C3102      H3114   1.083       .  S
C3103      C3104   1.348       .  D
C3103      H3115   1.086       .  S
C3104      C3105   1.490   1_565  S
C3104      H3116   1.085       .  S
C3105      C3106   1.406       .  A
C3105      C3110   1.407       .  A
C3106      C3107   1.404       .  A
C3106      H3117   1.083       .  S
C3107      C3108   1.405       .  A
C3107      H3118   1.083       .  S
C3108      C3109   1.402       .  A
C3109      C3110   1.395       .  A
C3109      H3119   1.083       .  S
C3110      H3120   1.082       .  S
C3121      C3122   1.401       .  A
C3121      C3126   1.401       .  A
C3122      C3123   1.395       .  A
C3122      H3135   1.083       .  S
C3123      C3124   1.405       .  A
C3123      H3136   1.083       .  S
C3124      C3125   1.411       .  A
C3124      C3127   1.490       .  S
C3125      C3126   1.400       .  A
C3125      H3137   1.080       .  S
C3126      H3138   1.083       .  S
C3127      C3128   1.348       .  D
C3127      H3139   1.085       .  S
C3128      C3129   1.488       .  S
C3128      H3140   1.083       .  S
C3129      C3130   1.404       .  A
C3129      C3134   1.409       .  A
C3130      C3131   1.399       .  A
C3130      H3141   1.083       .  S
C3131      C3132   1.404       .  A
C3131      H3142   1.082       .  S
C3132      C3133   1.403       .  A
C3133      C3134   1.396       .  A
C3133      H3143   1.083       .  S
C3134      H3144   1.081       .  S
C3145      C3146   1.402       .  A
C3145      C3150   1.404       .  A
C3146      C3147   1.396       .  A
C3146      H3159   1.083       .  S
C3147      C3148   1.402       .  A
C3147      H3160   1.083       .  S
C3148      C3149   1.410       .  A
C3148      C3151   1.488       .  S
C3149      C3150   1.405       .  A
C3149      H3161   1.082       .  S
C3150      H3162   1.083       .  S
C3151      C3152   1.350       .  D
C3151      H3163   1.083       .  S
C3152      C3153   1.496       .  S
C3152      H3164   1.086       .  S
C3153      C3154   1.405       .  A
C3153      C3158   1.411       .  A
C3154      C3155   1.401       .  A
C3154      H3165   1.083       .  S
C3155      C3156   1.407       .  A
C3155      H3166   1.083       .  S
C3156      C3157   1.406       .  A
C3157      C3158   1.401       .  A
C3157      H3167   1.083       .  S
C3158      H3168   1.080       .  S
C3169      C3170   1.406       .  A
C3169      C3174   1.408       .  A
C3170      C3171   1.399       .  A
C3170      H3183   1.083       .  S
C3171      C3172   1.404       .  A
C3171      H3184   1.083       .  S
C3172      C3173   1.407       .  A
C3172      C3175   1.488       .  S
C3173      C3174   1.402       .  A
C3173      H3185   1.082       .  S
C3174      H3186   1.083       .  S
C3175      C3176   1.352       .  D
C3175      H3187   1.082       .  S
C3176      C3177   1.497       .  S
C3176      H3188   1.086       .  S
C3177      C3178   1.409       .  A
C3177      C3182   1.409       .  A
C3178      C3179   1.404       .  A
C3178      H3189   1.083       .  S
C3179      C3180   1.403       .  A
C3179      H3190   1.083       .  S
C3180      C3181   1.404       .  A
C3181      C3182   1.397       .  A
C3181      H3191   1.084       .  S
C3182      H3192   1.079       .  S
C3193      C3194   1.400       .  A
C3193      C3198   1.402       .  A
C3194      C3195   1.396       .  A
C3194      H3207   1.083       .  S
C3195      C3196   1.406       .  A
C3195      H3208   1.083       .  S
C3196      C3197   1.412       .  A
C3196      C3199   1.493       .  S
C3197      C3198   1.402       .  A
C3197      H3209   1.079       .  S
C3198      H3210   1.083       .  S
C3199      C3200   1.350       .  D
C3199      H3211   1.085       .  S
C3200      C3201   1.491       .  S
C3200      H3212   1.083       .  S
C3201      C3202   1.406       .  A
C3201      C3206   1.409       .  A
C3202      C3203   1.401       .  A
C3202      H3213   1.083       .  S
C3203      C3204   1.403       .  A
C3203      H3214   1.083       .  S
C3204      C3205   1.403       .  A
C3205      C3206   1.397       .  A
C3205      H3215   1.083       .  S
C3206      H3216   1.081       .  S
C3217      C3218   1.404       .  A
C3217      C3222   1.403       .  A
C3218      C3219   1.404       .  A
C3218      H3231   1.083       .  S
C3219      C3220   1.408       .  A
C3219      H3232   1.083       .  S
C3220      C3221   1.407       .  A
C3220      C3223   1.493       .  S
C3221      C3222   1.395       .  A
C3221      H3233   1.081       .  S
C3222      H3234   1.083       .  S
C3223      C3224   1.350       .  D
C3223      H3235   1.085       .  S
C3224      C3225   1.489       .  S
C3224      H3236   1.085       .  S
C3225      C3226   1.404       .  A
C3225      C3230   1.408       .  A
C3226      C3227   1.398       .  A
C3226      H3237   1.083       .  S
C3227      C3228   1.405       .  A
C3227      H3238   1.083       .  S
C3228      C3229   1.408       .  A
C3229      C3230   1.402       .  A
C3229      H3239   1.083       .  S
C3230      H3240   1.081       .  S
C3241      C3242   1.403       .  A
C3241      C3246   1.402       .  A
C3242      C3243   1.402       .  A
C3242      H3255   1.083       .  S
C3243      C3244   1.407       .  A
C3243      H3256   1.083       .  S
C3244      C3245   1.409       .  A
C3244      C3247   1.494   1_554  S
C3245      C3246   1.398       .  A
C3245      H3257   1.081       .  S
C3246      H3258   1.083       .  S
C3247      C3248   1.350       .  D
C3247      H3259   1.085       .  S
C3248      C3249   1.488       .  S
C3248      H3260   1.084       .  S
C3249      C3250   1.403       .  A
C3249      C3254   1.410       .  A
C3250      C3251   1.394       .  A
C3250      H3261   1.083       .  S
C3251      C3252   1.402       .  A
C3251      H3262   1.084       .  S
C3252      C3253   1.405       .  A
C3253      C3254   1.405       .  A
C3253      H3263   1.083       .  S
C3254      H3264   1.082       .  S
C3265      C3266   1.407       .  A
C3265      C3270   1.407       .  A
C3266      C3267   1.399       .  A
C3266      H3279   1.083       .  S
C3267      C3268   1.402       .  A
C3267      H3280   1.083       .  S
C3268      C3269   1.408       .  A
C3268      C3271   1.488       .  S
C3269      C3270   1.402       .  A
C3269      H3281   1.082       .  S
C3270      H3282   1.083       .  S
C3271      C3272   1.348       .  D
C3271      H3283   1.085       .  S
C3272      C3273   1.490       .  S
C3272      H3284   1.086       .  S
C3273      C3274   1.405       .  A
C3273      C3278   1.408       .  A
C3274      C3275   1.400       .  A
C3274      H3285   1.083       .  S
C3275      C3276   1.403       .  A
C3275      H3286   1.083       .  S
C3276      C3277   1.404       .  A
C3277      C3278   1.398       .  A
C3277      H3287   1.083       .  S
C3278      H3288   1.081       .  S
C3289      C3290   1.401       .  A
C3289      C3294   1.404       .  A
C3290      C3291   1.395       .  A
C3290      H3303   1.084       .  S
C3291      C3292   1.404       .  A
C3291      H3304   1.083       .  S
C3292      C3293   1.412       .  A
C3292      C3295   1.492       .  S
C3293      C3294   1.405       .  A
C3293      H3305   1.081       .  S
C3294      H3306   1.083       .  S
C3295      C3296   1.349       .  D
C3295      H3307   1.086   1_556  S
C3296      C3297   1.492   1_556  S
C3296      H3308   1.084       .  S
C3297      C3298   1.406       .  A
C3297      C3302   1.408       .  A
C3298      C3299   1.404       .  A
C3298      H3309   1.083       .  S
C3299      C3300   1.404       .  A
C3299      H3310   1.083       .  S
C3300      C3301   1.402       .  A
C3301      C3302   1.396       .  A
C3301      H3311   1.083       .  S
C3302      H3312   1.082       .  S
C3313      C3314   1.403       .  A
C3313      C3318   1.402       .  A
C3314      C3315   1.400       .  A
C3314      H3327   1.083       .  S
C3315      C3316   1.406       .  A
C3315      H3328   1.083       .  S
C3316      C3317   1.411       .  A
C3316      C3319   1.493       .  S
C3317      C3318   1.398       .  A
C3317      H3329   1.081       .  S
C3318      H3330   1.083       .  S
C3319      C3320   1.350       .  D
C3319      H3331   1.084       .  S
C3320      C3321   1.493       .  S
C3320      H3332   1.084       .  S
C3321      C3322   1.405       .  A
C3321      C3326   1.411       .  A
C3322      C3323   1.396       .  A
C3322      H3333   1.083       .  S
C3323      C3324   1.401       .  A
C3323      H3334   1.083       .  S
C3324      C3325   1.404       .  A
C3325      C3326   1.403       .  A
C3325      H3335   1.082       .  S
C3326      H3336   1.080       .  S
C3337      C3338   1.401       .  A
C3337      C3342   1.403       .  A
C3338      C3339   1.398       .  A
C3338      H3351   1.083       .  S
C3339      C3340   1.406       .  A
C3339      H3352   1.083       .  S
C3340      C3341   1.411       .  A
C3340      C3343   1.495       .  S
C3341      C3342   1.404       .  A
C3341      H3353   1.081       .  S
C3342      H3354   1.083       .  S
C3343      C3344   1.351       .  D
C3343      H3355   1.085       .  S
C3344      C3345   1.494       .  S
C3344      H3356   1.084       .  S
C3345      C3346   1.404       .  A
C3345      C3350   1.409       .  A
C3346      C3347   1.401       .  A
C3346      H3357   1.083       .  S
C3347      C3348   1.407       .  A
C3347      H3358   1.083       .  S
C3348      C3349   1.407       .  A
C3349      C3350   1.402       .  A
C3349      H3359   1.083       .  S
C3350      H3360   1.081       .  S
C3361      C3362   1.402       .  A
C3361      C3366   1.404       .  A
C3362      C3363   1.404       .  A
C3362      H3375   1.082       .  S
C3363      C3364   1.408       .  A
C3363      H3376   1.083       .  S
C3364      C3365   1.408       .  A
C3364      C3367   1.494       .  S
C3365      C3366   1.395       .  A
C3365      H3377   1.080       .  S
C3366      H3378   1.083       .  S
C3367      C3368   1.351       .  D
C3367      H3379   1.085       .  S
C3368      C3369   1.490       .  S
C3368      H3380   1.084       .  S
C3369      C3370   1.404       .  A
C3369      C3374   1.408       .  A
C3370      C3371   1.398       .  A
C3370      H3381   1.083       .  S
C3371      C3372   1.406       .  A
C3371      H3382   1.083       .  S
C3372      C3373   1.407       .  A
C3373      C3374   1.402       .  A
C3373      H3383   1.083       .  S
C3374      H3384   1.081       .  S
C3385      C3386   1.403       .  A
C3385      C3390   1.403       .  A
C3386      C3387   1.399       .  A
C3386      H3399   1.083       .  S
C3387      C3388   1.405       .  A
C3387      H3400   1.083       .  S
C3388      C3389   1.409       .  A
C3388      C3391   1.491       .  S
C3389      C3390   1.400       .  A
C3389      H3401   1.081       .  S
C3390      H3402   1.082       .  S
C3391      C3392   1.349       .  D
C3391      H3403   1.085       .  S
C3392      C3393   1.489       .  S
C3392      H3404   1.085       .  S
C3393      C3394   1.406       .  A
C3393      C3398   1.409       .  A
C3394      C3395   1.398       .  A
C3394      H3405   1.083       .  S
C3395      C3396   1.399       .  A
C3395      H3406   1.083       .  S
C3396      C3397   1.401       .  A
C3397      C3398   1.401       .  A
C3397      H3407   1.083       .  S
C3398      H3408   1.082       .  S
C3409      C3410   1.403       .  A
C3409      C3414   1.403       .  A
C3410      C3411   1.402       .  A
C3410      H3423   1.083       .  S
C3411      C3412   1.406       .  A
C3411      H3424   1.083       .  S
C3412      C3413   1.408       .  A
C3412      C3415   1.491       .  S
C3413      C3414   1.396       .  A
C3413      H3425   1.081       .  S
C3414      H3426   1.083       .  S
C3415      C3416   1.350       .  D
C3415      H3427   1.085       .  S
C3416      C3417   1.487       .  S
C3416      H3428   1.085       .  S
C3417      C3418   1.404       .  A
C3417      C3422   1.408       .  A
C3418      C3419   1.397       .  A
C3418      H3429   1.083       .  S
C3419      C3420   1.404       .  A
C3419      H3430   1.083       .  S
C3420      C3421   1.407       .  A
C3421      C3422   1.402       .  A
C3421      H3431   1.083       .  S
C3422      H3432   1.082       .  S
C3433      C3434   1.405       .  A
C3433      C3438   1.404       .  A
C3434      C3435   1.402       .  A
C3434      H3447   1.083       .  S
C3435      C3436   1.405       .  A
C3435      H3448   1.083       .  S
C3436      C3437   1.408       .  A
C3436      C3439   1.489       .  S
C3437      C3438   1.397       .  A
C3437      H3449   1.082       .  S
C3438      H3450   1.083       .  S
C3439      C3440   1.347       .  D
C3439      H3451   1.085       .  S
C3440      C3441   1.489       .  S
C3440      H3452   1.086       .  S
C3441      C3442   1.403       .  A
C3441      C3446   1.410       .  A
C3442      C3443   1.396       .  A
C3442      H3453   1.083       .  S
C3443      C3444   1.403       .  A
C3443      H3454   1.084       .  S
C3444      C3445   1.404       .  A
C3445      C3446   1.403       .  A
C3445      H3455   1.083       .  S
C3446      H3456   1.081       .  S
C3457      C3458   1.405       .  A
C3457      C3462   1.407       .  A
C3458      C3459   1.399       .  A
C3458      H3471   1.083       .  S
C3459      C3460   1.405       .  A
C3459      H3472   1.083       .  S
C3460      C3461   1.410       .  A
C3460      C3463   1.496       .  S
C3461      C3462   1.402       .  A
C3461      H3473   1.080       .  S
C3462      H3474   1.083       .  S
C3463      C3464   1.349       .  D
C3463      H3475   1.085       .  S
C3464      C3465   1.491       .  S
C3464      H3476   1.084       .  S
C3465      C3466   1.403       .  A
C3465      C3470   1.411       .  A
C3466      C3467   1.397       .  A
C3466      H3477   1.083       .  S
C3467      C3468   1.403       .  A
C3467      H3478   1.083       .  S
C3468      C3469   1.404       .  A
C3469      C3470   1.404       .  A
C3469      H3479   1.083       .  S
C3470      H3480   1.082       .  S
C3481      C3482   1.404       .  A
C3481      C3486   1.402       .  A
C3482      C3483   1.403       .  A
C3482      H3495   1.083       .  S
C3483      C3484   1.405       .  A
C3483      H3496   1.083       .  S
C3484      C3485   1.407       .  A
C3484      C3487   1.487       .  S
C3485      C3486   1.395       .  A
C3485      H3497   1.082       .  S
C3486      H3498   1.083       .  S
C3487      C3488   1.346       .  D
C3487      H3499   1.085       .  S
C3488      C3489   1.488       .  S
C3488      H3500   1.087       .  S
C3489      C3490   1.402       .  A
C3489      C3494   1.410       .  A
C3490      C3491   1.395       .  A
C3490      H3501   1.084       .  S
C3491      C3492   1.404       .  A
C3491      H3502   1.083       .  S
C3492      C3493   1.404       .  A
C3493      C3494   1.404       .  A
C3493      H3503   1.081       .  S
C3494      H3504   1.081       .  S
C3505      C3506   1.402       .  A
C3505      C3510   1.402       .  A
C3506      C3507   1.396       .  A
C3506      H3519   1.083       .  S
C3507      C3508   1.404       .  A
C3507      H3520   1.083       .  S
C3508      C3509   1.411       .  A
C3508      C3511   1.490       .  S
C3509      C3510   1.401       .  A
C3509      H3521   1.081       .  S
C3510      H3522   1.083       .  S
C3511      C3512   1.349       .  D
C3511      H3523   1.083       .  S
C3512      C3513   1.493       .  S
C3512      H3524   1.085       .  S
C3513      C3514   1.405       .  A
C3513      C3518   1.411       .  A
C3514      C3515   1.397       .  A
C3514      H3525   1.083       .  S
C3515      C3516   1.402       .  A
C3515      H3526   1.083       .  S
C3516      C3517   1.402       .  A
C3517      C3518   1.400       .  A
C3517      H3527   1.083       .  S
C3518      H3528   1.080       .  S
C3529      C3530   1.406       .  A
C3529      C3534   1.407       .  A
C3530      C3531   1.402       .  A
C3530      H3543   1.081       .  S
C3531      C3532   1.404       .  A
C3531      H3544   1.083       .  S
C3532      C3533   1.403       .  A
C3532      C3535   1.484       .  S
C3533      C3534   1.397       .  A
C3533      H3545   1.083       .  S
C3534      H3546   1.083       .  S
C3535      C3536   1.348       .  D
C3535      H3547   1.086       .  S
C3536      C3537   1.484       .  S
C3536      H3548   1.087       .  S
C3537      C3538   1.404       .  A
C3537      C3542   1.405       .  A
C3538      C3539   1.401       .  A
C3538      H3549   1.083       .  S
C3539      C3540   1.404       .  A
C3539      H3550   1.083       .  S
C3540      C3541   1.405       .  A
C3541      C3542   1.399       .  A
C3541      H3551   1.083       .  S
C3542      H3552   1.083       .  S
