geometry optimzed in LAMMPS
_audit_creation_date              2020-12-01 
_audit_creation_method            'lammps2cif' 
_symmetry_space_group_name_H-M    'P1' 
_symmetry_Int_Tables_number       1 
_symmetry_cell_setting            triclinic 
loop_ 
_symmetry_equiv_pos_as_xyz 
  x,y,z 
_cell_length_a                    104.25415949 
_cell_length_b                    104.06233017559447 
_cell_length_c                    104.09649399686981 
_cell_angle_alpha                 89.93079870470403 
_cell_angle_beta                  89.87170083819332 
_cell_angle_gamma                 90.08334807778425 
loop_ 
_atom_site_label 
_atom_site_type_symbol 
_atom_site_fract_x 
_atom_site_fract_y 
_atom_site_fract_z 
_atom_site_charge 
N1          N  0.76940428  0.20068248  0.42992350    -0.02200
C2          C  0.76663364  0.19091547  0.42168288     0.00400
C3          C  0.76680836  0.17927905  0.42811218    -0.22500
C4          C  0.76992458  0.18188210  0.44065780    -0.22700
C5          C  0.77145496  0.19501911  0.44155804     0.00300
H6          H  0.76545108  0.16983418  0.42398765     0.14000
H7          H  0.77143506  0.17489158  0.44820895     0.14100
N8          N  0.74675626  0.29059291  0.43299112    -0.02200
C9          C  0.74584054  0.29907728  0.42311255     0.00400
C10         C  0.74284609  0.31114483  0.42765666    -0.22500
C11         C  0.74178833  0.31008068  0.44077263    -0.22700
C12         C  0.74416273  0.29735540  0.44388254     0.00300
H13         H  0.74154826  0.31979039  0.42201958     0.14000
H14         H  0.73929151  0.31777552  0.44729184     0.14100
N15         N  0.71975051  0.26064248  0.53851803    -0.02200
C16         C  0.70919586  0.26079077  0.54631168     0.00400
C17         C  0.69871030  0.26553112  0.53977256    -0.22500
C18         C  0.70278981  0.26839988  0.52754989    -0.22700
C19         C  0.71565501  0.26535578  0.52698385     0.00300
H20         H  0.68915642  0.26698373  0.54358780     0.14000
H21         H  0.69702872  0.27243228  0.51990888     0.14100
N22         N  0.80126200  0.21736845  0.53845968    -0.02200
C23         C  0.80973143  0.21301508  0.54742396     0.00400
C24         C  0.81806485  0.20430926  0.54178842    -0.22500
C25         C  0.81468671  0.20329595  0.52911849    -0.22700
C26         C  0.80432447  0.21132813  0.52726303     0.00300
H27         H  0.82598728  0.19935312  0.54628819     0.14000
H28         H  0.81921098  0.19716340  0.52205314     0.14100
N29         N  0.71454830  0.22490041  0.93272005    -0.02200
C30         C  0.70467058  0.22240095  0.92457619     0.00400
C31         C  0.69417902  0.21797374  0.93140069    -0.22500
C32         C  0.69763480  0.21787149  0.94412638    -0.22700
C33         C  0.71021610  0.22208242  0.94474234     0.00300
H34         H  0.68487705  0.21541707  0.92757097     0.14000
H35         H  0.69161353  0.21486535  0.95206268     0.14100
N36         N  0.80011312  0.26000678  0.93159561    -0.02200
C37         C  0.81029493  0.25934895  0.92336750     0.00400
C38         C  0.82142719  0.26293354  0.92962187    -0.22500
C39         C  0.81811895  0.26576532  0.94208050    -0.22700
C40         C  0.80503880  0.26402682  0.94303095     0.00300
H41         H  0.83093491  0.26361421  0.92547681     0.14000
H42         H  0.82453043  0.26894333  0.94960088     0.14100
N43         N  0.75635915  0.20212937  0.03491270    -0.02200
C44         C  0.75918645  0.19173092  0.04229662     0.00400
C45         C  0.75795199  0.18056430  0.03525423    -0.22500
C46         C  0.75429116  0.18415076  0.02307946    -0.22700
C47         C  0.75336157  0.19739030  0.02308822     0.00300
H48         H  0.75922864  0.17083611  0.03870540     0.14000
H49         H  0.75235633  0.17777651  0.01510618     0.14100
N50         N  0.77623932  0.29227829  0.03669471    -0.02200
C51         C  0.78031000  0.30077597  0.04569975     0.00400
C52         C  0.78538136  0.31156467  0.03979856    -0.22500
C53         C  0.78435961  0.30966253  0.02677989    -0.22700
C54         C  0.77884249  0.29770485  0.02510205     0.00300
H55         H  0.78927629  0.31999821  0.04445828     0.14000
H56         H  0.78776709  0.31610300  0.01934549     0.14100
N57         N  0.80147299  0.94021408  0.25024419    -0.02200
C58         C  0.81140123  0.93217419  0.24763624     0.00400
C59         C  0.82294432  0.93871079  0.24813920    -0.22500
C60         C  0.82011934  0.95118393  0.25129747    -0.22700
C61         C  0.80696434  0.95185078  0.25255708     0.00300
H62         H  0.83244715  0.93467858  0.24703998     0.14000
H63         H  0.82695251  0.95881933  0.25305526     0.14100
N64         N  0.71279256  0.94361181  0.22502325    -0.02200
C65         C  0.70372050  0.93488399  0.22163035     0.00400
C66         C  0.69347854  0.94100867  0.21589372    -0.22500
C67         C  0.69634071  0.95390278  0.21568514    -0.22700
C68         C  0.70834934  0.95528086  0.22116121     0.00300
H69         H  0.68495574  0.93653792  0.21199595     0.14000
H70         H  0.69059606  0.96134476  0.21127400     0.14100
N71         N  0.78335868  0.04781295  0.28087259    -0.02200
C72         C  0.78670563  0.05695712  0.28949219     0.00400
C73         C  0.79328131  0.05142971  0.29962644    -0.22500
C74         C  0.79394016  0.03848498  0.29716552    -0.22700
C75         C  0.78785740  0.03651681  0.28554521     0.00300
H76         H  0.79708044  0.05624912  0.30800418     0.14000
H77         H  0.79871192  0.03136548  0.30303519     0.14100
N78         N  0.74590505  0.04905098  0.19665618    -0.02200
C79         C  0.74762467  0.05587397  0.18562594     0.00400
C80         C  0.74606662  0.04800874  0.17504789    -0.22500
C81         C  0.74312710  0.03597601  0.17963620    -0.22700
C82         C  0.74304724  0.03684602  0.19285873     0.00300
H83         H  0.74640430  0.05086604  0.16505196     0.14000
H84         H  0.74073491  0.02761844  0.17394043     0.14100
O85         O  0.78366815  0.31542500  0.14505356    -0.71700
O86         O  0.77954663  0.31401951  0.18329082    -0.72700
O87         O  0.78034739  0.29541147  0.16333717    -0.61300
O88         O  0.78288259  0.33404877  0.16526408    -0.69700
O89         O  0.76176076  0.33574457  0.16335329    -0.69300
O90         O  0.75923667  0.29714567  0.16134617    -0.60500
O91         O  0.75841769  0.31566709  0.18129992    -0.73000
O92         O  0.76255052  0.31677865  0.14280293    -0.71800
Cu93       Cu  0.78234030  0.31471088  0.16426674     1.04600
Cu94       Cu  0.75975682  0.31642920  0.16206010     1.04300
C95         C  0.77376209  0.31583179  0.13787123     0.94500
C96         C  0.76838926  0.31467347  0.18833795     0.93600
C97         C  0.76930483  0.29019528  0.16214439     0.85800
C98         C  0.77273713  0.34093586  0.16516975     0.92000
O99         O  0.74438870  0.31579575  0.28680570    -0.71700
O100        O  0.74376311  0.31370443  0.32537517    -0.72700
O101        O  0.74144489  0.33408482  0.30665194    -0.61300
O102        O  0.74680827  0.29592687  0.30524489    -0.69700
O103        O  0.76786221  0.29898093  0.30622630    -0.69300
O104        O  0.76249264  0.33725094  0.30682702    -0.60500
O105        O  0.76473176  0.31733421  0.32598706    -0.73000
O106        O  0.76551313  0.31841952  0.28741610    -0.71800
Cu107      Cu  0.74335976  0.31484161  0.30605432     1.04600
Cu108      Cu  0.76587729  0.31815958  0.30667325     1.04300
C109        C  0.75512578  0.31714825  0.28103768     0.94500
C110        C  0.75419758  0.31468969  0.33172798     0.93600
C111        C  0.75107999  0.34170212  0.30639766     0.85800
C112        C  0.75820652  0.29144859  0.30552970     0.92000
O113        O  0.77389535  0.18851815  0.15914523    -0.71700
O114        O  0.76696372  0.15043394  0.15869452    -0.72700
O115        O  0.76911369  0.17034607  0.13937178    -0.61300
O116        O  0.77162315  0.16903256  0.17824110    -0.69700
O117        O  0.75070073  0.17272111  0.17947020    -0.69300
O118        O  0.74814949  0.17355258  0.14103056    -0.60500
O119        O  0.74605200  0.15375584  0.16081052    -0.73000
O120        O  0.75293498  0.19199831  0.16030844    -0.71800
Cu121      Cu  0.77111512  0.16937962  0.15875675     1.04600
Cu122      Cu  0.74873270  0.17308189  0.16038930     1.04300
C123        C  0.76444178  0.19627613  0.15983662     0.94500
C124        C  0.75560413  0.14606641  0.16032873     0.93600
C125        C  0.75828541  0.17279456  0.13413830     0.85800
C126        C  0.76147378  0.17081050  0.18494423     0.92000
O127        O  0.75428762  0.19045399  0.30342381    -0.71700
O128        O  0.75982439  0.15223396  0.30356047    -0.72700
O129        O  0.75623330  0.17163567  0.32298701    -0.61300
O130        O  0.75784282  0.17124663  0.28437841    -0.69700
O131        O  0.77896854  0.17375249  0.28508126    -0.69300
O132        O  0.77706521  0.17598075  0.32376004    -0.60500
O133        O  0.78076282  0.15568272  0.30534759    -0.73000
O134        O  0.77535252  0.19362375  0.30346007    -0.71800
Cu135      Cu  0.75631015  0.17125134  0.30359746     1.04600
Cu136      Cu  0.77877661  0.17481011  0.30446746     1.04300
C137        C  0.76393979  0.19803738  0.30337156     0.94500
C138        C  0.77129184  0.14797409  0.30416094     0.93600
C139        C  0.76626409  0.17451848  0.32942151     0.85800
C140        C  0.76864161  0.17231391  0.27863556     0.92000
N141        N  0.77193144  0.44038491  0.19659299    -0.02200
C142        C  0.77534362  0.43186188  0.18731944     0.00400
C143        C  0.77996962  0.43828757  0.17666244    -0.22500
C144        C  0.77943851  0.45115107  0.17942055    -0.22700
C145        C  0.77458669  0.45228259  0.19177065     0.00300
H146        H  0.78340138  0.43405764  0.16780666     0.14000
H147        H  0.78280264  0.45879256  0.17321139     0.14100
N148        N  0.73993260  0.44235240  0.28351984    -0.02200
C149        C  0.74183801  0.43395489  0.29336011     0.00400
C150        C  0.73802900  0.43934508  0.30487319    -0.22500
C151        C  0.73372431  0.45150835  0.30213550    -0.22700
C152        C  0.73498542  0.45311462  0.28903914     0.00300
H153        H  0.73790860  0.43471645  0.31418992     0.14000
H154        H  0.72979456  0.45834139  0.30890994     0.14100
N155        N  0.79378370  0.54777757  0.22691197    -0.02200
C156        C  0.80424327  0.55545729  0.22863586     0.00400
C157        C  0.81534564  0.54889804  0.22549611    -0.22500
C158        C  0.81171327  0.53683986  0.22162875    -0.22700
C159        C  0.79853467  0.53637194  0.22261056     0.00300
H160        H  0.82503224  0.55265474  0.22555148     0.14000
H161        H  0.81797466  0.52931556  0.21814823     0.14100
N162        N  0.71232044  0.55176192  0.27050079    -0.02200
C163        C  0.70450396  0.56062087  0.27598896     0.00400
C164        C  0.69485842  0.55464386  0.28287354    -0.22500
C165        C  0.69675102  0.54166102  0.28159189    -0.22700
C166        C  0.70759592  0.54009718  0.27407019     0.00300
H167        H  0.68723357  0.55923602  0.28823510     0.14000
H168        H  0.69113895  0.53417874  0.28616029     0.14100
O169        O  0.66579031  0.81706688  0.22911631    -0.71700
O170        O  0.70432925  0.81827443  0.22827536    -0.72700
O171        O  0.68558743  0.79867348  0.23072294    -0.61300
O172        O  0.68496836  0.83722668  0.22696015    -0.69700
O173        O  0.68569794  0.83912083  0.24817293    -0.69300
O174        O  0.68536456  0.80077852  0.25193743    -0.60500
O175        O  0.70471887  0.81987035  0.24952432    -0.73000
O176        O  0.66590647  0.81985127  0.25024550    -0.71800
Cu177      Cu  0.68508458  0.81779119  0.22803108     1.04600
Cu178      Cu  0.68536852  0.82001543  0.25070707     1.04300
C179        C  0.65977301  0.81789245  0.23978964     0.94500
C180        C  0.71061436  0.81907985  0.23875273     0.93600
C181        C  0.68564618  0.79367779  0.24194479     0.85800
C182        C  0.68598338  0.84422471  0.23701794     0.92000
O183        O  0.84504155  0.67056533  0.23303582    -0.71700
O184        O  0.80734235  0.67308324  0.23834056    -0.72700
O185        O  0.82774145  0.69090256  0.23748723    -0.61300
O186        O  0.82412893  0.65270613  0.23401057    -0.69700
O187        O  0.82794133  0.65040899  0.25485849    -0.69300
O188        O  0.82974997  0.68893306  0.25862191    -0.60500
O189        O  0.80969120  0.67038942  0.25936235    -0.73000
O190        O  0.84824558  0.66957264  0.25408095    -0.71800
Cu191      Cu  0.82602250  0.67185911  0.23501724     1.04600
Cu192      Cu  0.82904412  0.66968809  0.25749973     1.04300
C193        C  0.85265703  0.67028140  0.24261741     0.94500
C194        C  0.80250309  0.67201971  0.24954814     0.93600
C195        C  0.82910137  0.69596380  0.24858220     0.85800
C196        C  0.82512583  0.64555430  0.24392925     0.92000
O197        O  0.66478427  0.67715008  0.26901149    -0.71700
O198        O  0.70340844  0.67675737  0.27070836    -0.72700
O199        O  0.68431258  0.69599389  0.26865076    -0.61300
O200        O  0.68436400  0.65745845  0.27108465    -0.69700
O201        O  0.68543788  0.65603035  0.24983864    -0.69300
O202        O  0.68458354  0.69444831  0.24738379    -0.60500
O203        O  0.70392939  0.67562694  0.24942104    -0.73000
O204        O  0.66551732  0.67495176  0.24781776    -0.71800
Cu205      Cu  0.68410231  0.67683233  0.27062164     1.04600
Cu206      Cu  0.68483411  0.67519086  0.24788968     1.04300
C207        C  0.65908533  0.67651190  0.25815616     0.94500
C208        C  0.70973247  0.67620659  0.26020458     0.93600
C209        C  0.68458578  0.70127774  0.25757847     0.85800
C210        C  0.68567240  0.65071630  0.26089449     0.92000
O211        O  0.83017156  0.79596615  0.23709562    -0.71700
O212        O  0.83075361  0.83427466  0.23717228    -0.72700
O213        O  0.84982725  0.81441179  0.23922009    -0.61300
O214        O  0.81103466  0.81544590  0.23547111    -0.69700
O215        O  0.80943362  0.81472760  0.25671412    -0.69300
O216        O  0.84753386  0.81498056  0.26040399    -0.60500
O217        O  0.82781487  0.83439089  0.25829984    -0.73000
O218        O  0.82877836  0.79553877  0.25837104    -0.71800
Cu219      Cu  0.83054895  0.81507195  0.23649840     1.04600
Cu220      Cu  0.82835734  0.81495348  0.25918422     1.04300
C221        C  0.82960629  0.78967781  0.24760348     0.94500
C222        C  0.82878517  0.84039251  0.24760202     0.93600
C223        C  0.85470596  0.81402542  0.25049567     0.85800
C224        C  0.80415629  0.81520980  0.24568251     0.92000
N225        N  0.45285951  0.76309496  0.20701403    -0.02200
C226        C  0.44359841  0.76680744  0.19868095     0.00400
C227        C  0.44885156  0.77406238  0.18888413    -0.22500
C228        C  0.46180391  0.77479364  0.19123258    -0.22700
C229        C  0.46403966  0.76808458  0.20249763     0.00300
H230        H  0.44378843  0.77845831  0.18095260     0.14000
H231        H  0.46874180  0.78015520  0.18562680     0.14100
N232        N  0.45199702  0.73030990  0.29311085    -0.02200
C233        C  0.44471825  0.73244924  0.30380730     0.00400
C234        C  0.45209750  0.73087068  0.31471444    -0.22500
C235        C  0.46423804  0.72755040  0.31067516    -0.22700
C236        C  0.46399400  0.72733273  0.29741916     0.00300
H237        H  0.44886184  0.73153714  0.32457672     0.14000
H238        H  0.47229426  0.72517300  0.31676725     0.14100
N239        N  0.55838718  0.70226613  0.26206842    -0.02200
C240        C  0.56710044  0.69255990  0.26176561     0.00400
C241        C  0.56133099  0.68108130  0.26499412    -0.22500
C242        C  0.54865049  0.68375137  0.26736374    -0.22700
C243        C  0.54694300  0.69684817  0.26544862     0.00300
H244        H  0.56592969  0.67180431  0.26587726     0.14000
H245        H  0.54157556  0.67678208  0.27041500     0.14100
N246        N  0.56002780  0.79030116  0.23336587    -0.02200
C247        C  0.56765794  0.80075900  0.23499391     0.00400
C248        C  0.56068193  0.81190036  0.23314731    -0.22500
C249        C  0.54835076  0.80819388  0.23022339    -0.22700
C250        C  0.54819478  0.79493182  0.23046394     0.00300
H251        H  0.56430553  0.82164971  0.23332167     0.14000
H252        H  0.54045496  0.81447341  0.22778150     0.14100
N253        N  0.95307968  0.69416974  0.22850885    -0.02200
C254        C  0.94362744  0.68555985  0.22579914     0.00400
C255        C  0.94888044  0.67475369  0.22010567    -0.22500
C256        C  0.96189589  0.67669517  0.21940342    -0.22700
C257        C  0.96426395  0.68869748  0.22452510     0.00300
H258        H  0.94383395  0.66617216  0.21711328     0.14000
H259        H  0.96886752  0.67008558  0.21545377     0.14100
N260        N  0.95335722  0.78236437  0.25833332    -0.02200
C261        C  0.94532343  0.79260045  0.25689617     0.00400
C262        C  0.95117611  0.80377016  0.26099169    -0.22500
C263        C  0.96319773  0.80046721  0.26511537    -0.22700
C264        C  0.96433668  0.78737080  0.26345090     0.00300
H265        H  0.94684917  0.81320266  0.26163335     0.14000
H266        H  0.97011511  0.80681365  0.26955606     0.14100
N267        N  0.05946274  0.72739156  0.20938444    -0.02200
C268        C  0.06706936  0.72925068  0.19889025     0.00400
C269        C  0.05994777  0.72805959  0.18777164    -0.22500
C270        C  0.04758622  0.72530978  0.19147244    -0.22700
C271        C  0.04750603  0.72488974  0.20472608     0.00300
H272        H  0.06342681  0.72881402  0.17799703     0.14000
H273        H  0.03949622  0.72374686  0.18516441     0.14100
N274        N  0.05756528  0.75825214  0.29638578    -0.02200
C275        C  0.06591029  0.75850653  0.30636339     0.00400
C276        C  0.05974205  0.76259182  0.31737764    -0.22500
C277        C  0.04718010  0.76490443  0.31407048    -0.22700
C278        C  0.04602374  0.76210542  0.30111371     0.00300
H279        H  0.06396552  0.76392348  0.32677124     0.14000
H280        H  0.03977900  0.76842899  0.32045003     0.14100
N281        N  0.29241107  0.78343818  0.94918913    -0.02200
C282        C  0.29786493  0.79092901  0.93998159     0.00400
C283        C  0.30657088  0.79931092  0.94540656    -0.22500
C284        C  0.30651742  0.79693266  0.95837436    -0.22700
C285        C  0.29787359  0.78703339  0.96050669     0.00300
H286        H  0.31235496  0.80641612  0.94046441     0.14000
H287        H  0.31263357  0.80154594  0.96537793     0.14100
N288        N  0.24684445  0.70291548  0.94764194    -0.02200
C289        C  0.24683061  0.69240526  0.93984028     0.00400
C290        C  0.24231569  0.68174039  0.94632070    -0.22500
C291        C  0.23945845  0.68565720  0.95856629    -0.22700
C292        C  0.24225907  0.69860836  0.95917050     0.00300
H293        H  0.24084766  0.67222234  0.94240300     0.14000
H294        H  0.23536818  0.67978592  0.96612891     0.14100
N295        N  0.30864756  0.74619660  0.05468079    -0.02200
C296        C  0.31758414  0.74172222  0.06304353     0.00400
C297        C  0.32941661  0.74082140  0.05709661    -0.22500
C298        C  0.32781553  0.74514062  0.04471866    -0.22700
C299        C  0.31505088  0.74840207  0.04350550     0.00300
H300        H  0.33843413  0.73830169  0.06156769     0.14000
H301        H  0.33528445  0.74643057  0.03759321     0.14100
N302        N  0.21884410  0.72494172  0.05645063    -0.02200
C303        C  0.20932299  0.72239391  0.06504279     0.00400
C304        C  0.19853421  0.71803219  0.05870340    -0.22500
C305        C  0.20146298  0.71787467  0.04583948    -0.22700
C306        C  0.21402730  0.72200761  0.04465190     0.00300
H307        H  0.18946030  0.71529584  0.06298192     0.14000
H308        H  0.19522960  0.71457929  0.03822075     0.14100
O309        O  0.18512914  0.74435639  0.15952343    -0.71700
O310        O  0.18319409  0.75050706  0.19788487    -0.72700
O311        O  0.20300113  0.74907702  0.17905884    -0.61300
O312        O  0.16457965  0.74594234  0.17829333    -0.69700
O313        O  0.16596089  0.72515824  0.18283309    -0.69300
O314        O  0.20465496  0.72798650  0.18174427    -0.60500
O315        O  0.18533432  0.72956658  0.20124221    -0.73000
O316        O  0.18559242  0.72334244  0.16310237    -0.71800
Cu317      Cu  0.18384199  0.74819004  0.17855395     1.04600
Cu318      Cu  0.18538901  0.72577649  0.18232289     1.04300
C319        C  0.18626258  0.73285504  0.15534369     0.94500
C320        C  0.18415982  0.74097621  0.20560346     0.93600
C321        C  0.20988782  0.73901265  0.18019167     0.85800
C322        C  0.15918111  0.73522990  0.18098920     0.92000
O323        O  0.33034747  0.73089127  0.16278707    -0.71700
O324        O  0.32946315  0.73458017  0.20125892    -0.72700
O325        O  0.31070866  0.73072254  0.18168380    -0.61300
O326        O  0.34915168  0.73456170  0.18265739    -0.69700
O327        O  0.34696380  0.75568462  0.18075493    -0.69300
O328        O  0.30858393  0.75186500  0.17990437    -0.60500
O329        O  0.32730651  0.75570786  0.19922785    -0.73000
O330        O  0.32796019  0.75200621  0.16099141    -0.71800
Cu331      Cu  0.33000288  0.73193766  0.18213438     1.04600
Cu332      Cu  0.32766812  0.75453518  0.18009433     1.04300
C333        C  0.32883497  0.74090696  0.15583321     0.94500
C334        C  0.32842454  0.74574602  0.20627626     0.93600
C335        C  0.30359608  0.74066203  0.18064069     0.85800
C336        C  0.35407285  0.74581009  0.18242098     0.92000
O337        O  0.20267725  0.75910446  0.32356144    -0.71700
O338        O  0.16390903  0.76099405  0.32247019    -0.72700
O339        O  0.18317220  0.76294163  0.34234478    -0.61300
O340        O  0.18348840  0.75754819  0.30412547    -0.69700
O341        O  0.18134989  0.73654195  0.30711025    -0.69300
O342        O  0.18320961  0.74187882  0.34562167    -0.60500
O343        O  0.16282585  0.74015568  0.32690418    -0.73000
O344        O  0.20131678  0.73793057  0.32566339    -0.71800
Cu345      Cu  0.18331961  0.76089005  0.32308531     1.04600
Cu346      Cu  0.18209308  0.73839937  0.32647303     1.04300
C347        C  0.20808358  0.74810801  0.32453069     0.94500
C348        C  0.15730069  0.75075894  0.32416804     0.93600
C349        C  0.18373988  0.75335259  0.35000698     0.85800
C350        C  0.18230606  0.74622493  0.29956697     0.92000
O351        O  0.34623735  0.73315946  0.32477929    -0.71700
O352        O  0.30740065  0.73608508  0.32384879    -0.72700
O353        O  0.32768528  0.73500317  0.30560808    -0.61300
O354        O  0.32538326  0.73401434  0.34376931    -0.69700
O355        O  0.32749579  0.75522693  0.34467099    -0.69300
O356        O  0.32915649  0.75628919  0.30583734    -0.60500
O357        O  0.30915438  0.75730993  0.32470017    -0.73000
O358        O  0.34786490  0.75439238  0.32554938    -0.71800
Cu359      Cu  0.32667406  0.73384446  0.32455396     1.04600
Cu360      Cu  0.32851312  0.75655601  0.32526117     1.04300
C361        C  0.35315611  0.74335049  0.32454833     0.94500
C362        C  0.30218362  0.74720277  0.32418135     0.93600
C363        C  0.32885437  0.74566055  0.29968306     0.85800
C364        C  0.32541524  0.74444194  0.35021683     0.92000
N365        N  0.23868407  0.78026601  0.55879580    -0.02200
C366        C  0.23865640  0.79051400  0.56691261     0.00400
C367        C  0.23282122  0.80092383  0.56111685    -0.22500
C368        C  0.22925277  0.79705499  0.54901117    -0.22700
C369        C  0.23292645  0.78437330  0.54781347     0.00300
H370        H  0.23096027  0.81020464  0.56541256     0.14000
H371        H  0.22412912  0.80274123  0.54198860     0.14100
N372        N  0.27634696  0.69597885  0.55592943    -0.02200
C373        C  0.28177597  0.68782728  0.56453818     0.00400
C374        C  0.28818277  0.67811801  0.55820724    -0.22500
C375        C  0.28666761  0.68034433  0.54528562    -0.22700
C376        C  0.27947804  0.69145955  0.54406966     0.00300
H377        H  0.29334880  0.67020820  0.56252702     0.14000
H378        H  0.29085643  0.67471985  0.53761781     0.14100
N379        N  0.29411096  0.72652875  0.44764155    -0.02200
C380        C  0.30464150  0.72849611  0.44013009     0.00400
C381        C  0.31562768  0.72490763  0.44661873    -0.22500
C382        C  0.31179415  0.72045142  0.45845126    -0.22700
C383        C  0.29861404  0.72156320  0.45887794     0.00300
H384        H  0.32535159  0.72506174  0.44295709     0.14000
H385        H  0.31793913  0.71661810  0.46589057     0.14100
N386        N  0.20827105  0.76019764  0.45089316    -0.02200
C387        C  0.19951170  0.76405126  0.44205544     0.00400
C388        C  0.18931065  0.76996389  0.44816997    -0.22500
C389        C  0.19187098  0.76967953  0.46113525    -0.22700
C390        C  0.20364239  0.76374777  0.46257029     0.00300
H391        H  0.18081037  0.77389898  0.44370842     0.14000
H392        H  0.18596302  0.77375284  0.46865421     0.14100
O393        O  0.26248683  0.80967147  0.66223925    -0.71700
O394        O  0.26895782  0.81230747  0.70043298    -0.72700
O395        O  0.26643039  0.79181918  0.68246476    -0.61300
O396        O  0.26510456  0.83059826  0.68041332    -0.69700
O397        O  0.24430975  0.83003177  0.68494734    -0.69300
O398        O  0.24536037  0.79131401  0.68547926    -0.60500
O399        O  0.24798120  0.81115568  0.70392998    -0.73000
O400        O  0.24154542  0.80979935  0.66603873    -0.71800
Cu401      Cu  0.26648621  0.81117498  0.68122112     1.04600
Cu402      Cu  0.24408354  0.81060855  0.68517459     1.04300
C403        C  0.25093624  0.80885968  0.65818167     0.94500
C404        C  0.25942797  0.81193042  0.70818230     0.93600
C405        C  0.25604915  0.78546718  0.68413928     0.85800
C406        C  0.25461802  0.83642982  0.68300423     0.92000
O407        O  0.23910521  0.64796039  0.82309200    -0.71700
O408        O  0.24205428  0.68659897  0.82353596    -0.72700
O409        O  0.24322754  0.66719367  0.80403395    -0.61300
O410        O  0.23824504  0.66781107  0.84254986    -0.69700
O411        O  0.25923790  0.66556955  0.84517060    -0.69300
O412        O  0.26427636  0.66626079  0.80698135    -0.60500
O413        O  0.26302385  0.68503735  0.82676008    -0.73000
O414        O  0.26022286  0.64631853  0.82500146    -0.71800
Cu415      Cu  0.23990984  0.66737534  0.82322371     1.04600
Cu416      Cu  0.26239645  0.66566557  0.82610168     1.04300
C417        C  0.24923551  0.64105704  0.82340110     0.94500
C418        C  0.25293366  0.69190178  0.82550372     0.93600
C419        C  0.25463370  0.66679302  0.79947275     0.85800
C420        C  0.24807744  0.66751677  0.84987486     0.92000
O421        O  0.26251338  0.81164283  0.84740828    -0.71700
O422        O  0.25565545  0.81077538  0.80929875    -0.72700
O423        O  0.25696579  0.79208463  0.82923085    -0.61300
O424        O  0.26114527  0.83085586  0.82685339    -0.69700
O425        O  0.28199781  0.82813825  0.82364130    -0.69300
O426        O  0.27783552  0.78983026  0.82569082    -0.60500
O427        O  0.27655462  0.80851165  0.80587979    -0.73000
O428        O  0.28332312  0.80919895  0.84365368    -0.71800
Cu429      Cu  0.25832774  0.81148902  0.82839680     1.04600
Cu430      Cu  0.28062142  0.80888858  0.82462623     1.04300
C431        C  0.27394013  0.80989515  0.85152448     0.94500
C432        C  0.26512974  0.80951388  0.80160325     0.93600
C433        C  0.26680037  0.78488690  0.82775674     0.85800
C434        C  0.27224436  0.83553403  0.82433182     0.92000
O435        O  0.25793420  0.66651126  0.66020520    -0.71700
O436        O  0.25334932  0.66550243  0.69839641    -0.72700
O437        O  0.25475939  0.68536977  0.67969349    -0.61300
O438        O  0.25684667  0.64645862  0.67943297    -0.69700
O439        O  0.27791548  0.64799616  0.68196650    -0.69300
O440        O  0.27587953  0.68633559  0.68210295    -0.60500
O441        O  0.27440402  0.66683589  0.70117391    -0.73000
O442        O  0.27904489  0.66779148  0.66245406    -0.71800
Cu443      Cu  0.25500120  0.66588427  0.67927386     1.04600
Cu444      Cu  0.27755050  0.66723042  0.68194492     1.04300
C445        C  0.26908774  0.66779416  0.65526415     0.94500
C446        C  0.26305171  0.66602613  0.70582654     0.93600
C447        C  0.26505543  0.69194045  0.68109795     0.85800
C448        C  0.26775675  0.64116210  0.68134040     0.92000
O449        O  0.81376611  0.24769512  0.66007956    -0.71700
O450        O  0.85206836  0.24221049  0.66151257    -0.72700
O451        O  0.83268409  0.24190697  0.64146857    -0.61300
O452        O  0.83265806  0.24790445  0.67993917    -0.69700
O453        O  0.82932883  0.22707093  0.68304239    -0.69300
O454        O  0.82993158  0.22105401  0.64504625    -0.60500
O455        O  0.84874950  0.22140046  0.66477921    -0.73000
O456        O  0.81050618  0.22684868  0.66318538    -0.71800
Cu457      Cu  0.83294467  0.24566745  0.66061410     1.04600
Cu458      Cu  0.82954701  0.22339083  0.66411646     1.04300
C459        C  0.80611457  0.23816319  0.66130256     0.94500
C460        C  0.85643296  0.23092045  0.66362689     0.93600
C461        C  0.83096836  0.23048348  0.63725777     0.85800
C462        C  0.83095466  0.23837306  0.68753554     0.92000
O463        O  0.66861134  0.24756969  0.80941253    -0.71700
O464        O  0.70721879  0.24861001  0.80877292    -0.72700
O465        O  0.68780544  0.25138420  0.79010568    -0.61300
O466        O  0.68848033  0.24496697  0.82830237    -0.69700
O467        O  0.68804790  0.22394081  0.82484411    -0.69300
O468        O  0.68882527  0.23037753  0.78662797    -0.60500
O469        O  0.70754364  0.22746183  0.80600370    -0.73000
O470        O  0.66917218  0.22670639  0.80504566    -0.71800
Cu471      Cu  0.68796859  0.24886760  0.80930958     1.04600
Cu472      Cu  0.68838543  0.22638921  0.80555173     1.04300
C473        C  0.66282199  0.23702016  0.80691211     0.94500
C474        C  0.71343412  0.23815250  0.80720317     0.93600
C475        C  0.68850440  0.24189810  0.78235119     0.85800
C476        C  0.68852082  0.23345528  0.83260523     0.92000
O477        O  0.70462130  0.23799941  0.66096178    -0.71700
O478        O  0.66653728  0.24524801  0.66369398    -0.72700
O479        O  0.68535627  0.24419229  0.64259678    -0.61300
O480        O  0.68638496  0.23913283  0.68121606    -0.69700
O481        O  0.69025634  0.25993086  0.68385272    -0.69300
O482        O  0.68978629  0.26482974  0.64546473    -0.60500
O483        O  0.67091646  0.26599638  0.66580175    -0.73000
O484        O  0.70876580  0.25873050  0.66372547    -0.71800
Cu485      Cu  0.68550410  0.24092682  0.66195439     1.04600
Cu486      Cu  0.69000080  0.26308254  0.66474430     1.04300
C487        C  0.71266912  0.24721111  0.66207854     0.94500
C488        C  0.66280151  0.25677094  0.66579863     0.93600
C489        C  0.68817448  0.25525606  0.63795152     0.85800
C490        C  0.68854644  0.24871721  0.68858072     0.92000
O491        O  0.83180033  0.25953410  0.82451608    -0.71700
O492        O  0.83144581  0.25428122  0.78613729    -0.72700
O493        O  0.81255004  0.25700465  0.80555373    -0.61300
O494        O  0.85100655  0.25684362  0.80457423    -0.69700
O495        O  0.85107113  0.23580641  0.80807797    -0.69300
O496        O  0.81249911  0.23583104  0.80818735    -0.60500
O497        O  0.83166631  0.23315880  0.78904225    -0.73000
O498        O  0.83130047  0.23844770  0.82756885    -0.71800
Cu499      Cu  0.83175364  0.25764404  0.80516223     1.04600
Cu500      Cu  0.83169389  0.23507297  0.80837783     1.04300
C501        C  0.83097926  0.24987192  0.83209372     0.94500
C502        C  0.83145178  0.24289838  0.78153744     0.93600
C503        C  0.80646953  0.24641989  0.80680030     0.85800
C504        C  0.85709481  0.24625119  0.80564834     0.92000
N505        N  0.21919019  0.43745164  0.76653662    -0.02200
C506        C  0.20927081  0.42909328  0.76772199     0.00400
C507        C  0.19818185  0.43564002  0.77084395    -0.22500
C508        C  0.20140008  0.44848113  0.77148551    -0.22700
C509        C  0.21436400  0.44935063  0.76874330     0.00300
H510        H  0.18877481  0.43152559  0.77245601     0.14000
H511        H  0.19498149  0.45631479  0.77378790     0.14100
N512        N  0.30468457  0.43565629  0.73239446    -0.02200
C513        C  0.31464133  0.42745539  0.73427395     0.00400
C514        C  0.32614517  0.43372433  0.73211179    -0.22500
C515        C  0.32318753  0.44613725  0.72870498    -0.22700
C516        C  0.30997565  0.44713557  0.72907289     0.00300
H517        H  0.33565213  0.42957697  0.73247177     0.14000
H518        H  0.32994769  0.45362104  0.72614315     0.14100
N519        N  0.27401255  0.54027288  0.70344257    -0.02200
C520        C  0.27040415  0.54890752  0.69434235     0.00400
C521        C  0.27175500  0.54376354  0.68223464    -0.22500
C522        C  0.27637150  0.53153648  0.68386453    -0.22700
C523        C  0.27765718  0.52951069  0.69695973     0.00300
H524        H  0.27004946  0.54856965  0.67317283     0.14000
H525        H  0.27866990  0.52486787  0.67623305     0.14100
N526        N  0.25134579  0.54140938  0.79278784    -0.02200
C527        C  0.24880984  0.54919777  0.80293320     0.00400
C528        C  0.24563563  0.54183416  0.81354853    -0.22500
C529        C  0.24622941  0.52915451  0.80977284    -0.22700
C530        C  0.24962090  0.52916519  0.79694093     0.00300
H531        H  0.24307883  0.54531166  0.82300564     0.14000
H532        H  0.24383267  0.52086484  0.81559343     0.14100
N533        N  0.24727688  0.93650759  0.71062458    -0.02200
C534        C  0.24967635  0.92891321  0.70022437     0.00400
C535        C  0.24852708  0.93597388  0.68902557    -0.22500
C536        C  0.24517377  0.94824626  0.69254797    -0.22700
C537        C  0.24444173  0.94836849  0.70578555     0.00300
H538        H  0.24938428  0.93242095  0.67929454     0.14000
H539        H  0.24298557  0.95611978  0.68611631     0.14100
N540        N  0.27669690  0.93691866  0.79837873    -0.02200
C541        C  0.28054440  0.92734615  0.80639644     0.00400
C542        C  0.28683912  0.93251423  0.81686841    -0.22500
C543        C  0.28680354  0.94563123  0.81530521    -0.22700
C544        C  0.28063330  0.94812905  0.80383765     0.00300
H545        H  0.29088868  0.92730053  0.82489220     0.14000
H546        H  0.29114746  0.95257534  0.82169448     0.14100
N547        N  0.21264017  0.04352529  0.73214432    -0.02200
C548        C  0.20260329  0.05158077  0.73010419     0.00400
C549        C  0.19225028  0.04476068  0.72541244    -0.22500
C550        C  0.19600204  0.03213127  0.72461696    -0.22700
C551        C  0.20862156  0.03155050  0.72872680     0.00300
H552        H  0.18292595  0.04854676  0.72288601     0.14000
H553        H  0.19018995  0.02429234  0.72105622     0.14100
N554        N  0.29774827  0.04326303  0.76636236    -0.02200
C555        C  0.30818405  0.05072225  0.76395050     0.00400
C556        C  0.31931704  0.04375379  0.76570106    -0.22500
C557        C  0.31565002  0.03156850  0.76925667    -0.22700
C558        C  0.30241342  0.03150515  0.76960555     0.00300
H559        H  0.32906080  0.04722908  0.76472549     0.14000
H560        H  0.32195366  0.02356441  0.77126802     0.14100
N561        N  0.95616887  0.25477453  0.77570130    -0.02200
C562        C  0.94852593  0.25117309  0.78569755     0.00400
C563        C  0.95573634  0.24953179  0.79669920    -0.22500
C564        C  0.96823216  0.25221050  0.79344291    -0.22700
C565        C  0.96826919  0.25543642  0.78057455     0.00300
H566        H  0.95225211  0.24686932  0.80613649     0.14000
H567        H  0.97642929  0.25188338  0.79979518     0.14100
N568        N  0.95640947  0.22340050  0.68988610    -0.02200
C569        C  0.94832881  0.22070810  0.68005482     0.00400
C570        C  0.95498887  0.21489949  0.67016590    -0.22500
C571        C  0.96758768  0.21404107  0.67404972    -0.22700
C572        C  0.96824239  0.21919639  0.68629675     0.00300
H573        H  0.95110424  0.21161982  0.66110989     0.14000
H574        H  0.97532592  0.20967120  0.66867184     0.14100
N575        N  0.06207847  0.28928766  0.76142459    -0.02200
C576        C  0.07074335  0.29728182  0.76699535     0.00400
C577        C  0.06450781  0.30732687  0.77299683    -0.22500
C578        C  0.05160120  0.30548392  0.77107103    -0.22700
C579        C  0.05030710  0.29426285  0.76408917     0.00300
H580        H  0.06888204  0.31519405  0.77818832     0.14000
H581        H  0.04396573  0.31143583  0.77483133     0.14100
N582        N  0.06156670  0.20265123  0.73033314    -0.02200
C583        C  0.06842708  0.19188075  0.73322561     0.00400
C584        C  0.06099722  0.18103207  0.73139018    -0.22500
C585        C  0.04924891  0.18515724  0.72707769    -0.22700
C586        C  0.04978547  0.19840249  0.72646437     0.00300
H587        H  0.06400769  0.17113808  0.73243478     0.14000
H588        H  0.04128893  0.17911257  0.72424185     0.14100
O589        O  0.18505329  0.15125576  0.73119573    -0.71700
O590        O  0.18587941  0.18933169  0.73773560    -0.72700
O591        O  0.20477009  0.16976530  0.73542979    -0.61300
O592        O  0.16607876  0.17150870  0.73351937    -0.69700
O593        O  0.16467809  0.16695135  0.75429422    -0.69300
O594        O  0.20347998  0.16675034  0.75648801    -0.60500
O595        O  0.18392344  0.18576868  0.75867370    -0.73000
O596        O  0.18467999  0.14764372  0.75220344    -0.71800
Cu597      Cu  0.18545492  0.17052071  0.73373320     1.04600
Cu598      Cu  0.18410288  0.16660149  0.75613486     1.04300
C599        C  0.18536518  0.14344638  0.74068992     0.94500
C600        C  0.18485630  0.19354792  0.74921287     0.93600
C601        C  0.21023037  0.16820016  0.74630957     0.85800
C602        C  0.15930709  0.17001365  0.74367553     0.92000
O603        O  0.16861500  0.31314918  0.74734895    -0.71700
O604        O  0.20726213  0.31308794  0.74679011    -0.72700
O605        O  0.18770184  0.29420624  0.74540154    -0.61300
O606        O  0.18831115  0.33246452  0.74841643    -0.69700
O607        O  0.18952991  0.33098017  0.76964027    -0.69300
O608        O  0.18751603  0.29214429  0.76662140    -0.60500
O609        O  0.20761658  0.31079774  0.76798122    -0.73000
O610        O  0.16901241  0.31199484  0.76862389    -0.71800
Cu611      Cu  0.18793598  0.31333124  0.74628491     1.04600
Cu612      Cu  0.18837996  0.31146539  0.76898851     1.04300
C613        C  0.16272604  0.31207745  0.75808399     0.94500
C614        C  0.21352550  0.31186449  0.75727640     0.93600
C615        C  0.18737304  0.28712183  0.75540206     0.85800
C616        C  0.18961122  0.33778748  0.75937569     0.92000
O617        O  0.35230231  0.30990549  0.75245145    -0.71700
O618        O  0.31372211  0.31202086  0.75625375    -0.72700
O619        O  0.33223322  0.29196163  0.75589235    -0.61300
O620        O  0.33363688  0.33036918  0.75281826    -0.69700
O621        O  0.33112530  0.32888744  0.73170401    -0.69300
O622        O  0.33027779  0.29033755  0.73472477    -0.60500
O623        O  0.31181196  0.31035985  0.73509511    -0.73000
O624        O  0.35021617  0.30838041  0.73131187    -0.71800
Cu625      Cu  0.33309143  0.31116643  0.75507905     1.04600
Cu626      Cu  0.33084427  0.30948384  0.73246616     1.04300
C627        C  0.35729366  0.30821596  0.74133846     0.94500
C628        C  0.30670712  0.31150784  0.74620065     0.93600
C629        C  0.33107836  0.28510198  0.74580016     0.85800
C630        C  0.33195727  0.33569904  0.74188608     0.92000
O631        O  0.32720928  0.14825636  0.76174051    -0.71700
O632        O  0.32867898  0.18654117  0.75802541    -0.72700
O633        O  0.30907477  0.16774629  0.75737394    -0.61300
O634        O  0.34714052  0.16714903  0.76268024    -0.69700
O635        O  0.35040101  0.16616748  0.74164126    -0.69300
O636        O  0.31169960  0.16530486  0.73636494    -0.60500
O637        O  0.33089987  0.18455427  0.73690125    -0.73000
O638        O  0.33104111  0.14621750  0.74085692    -0.71800
Cu639      Cu  0.32797723  0.16746616  0.76066585     1.04600
Cu640      Cu  0.33115986  0.16542093  0.73818884     1.04300
C641        C  0.32861204  0.14119824  0.75181013     0.94500
C642        C  0.32975500  0.19157578  0.74686918     0.93600
C643        C  0.30432747  0.16667526  0.74613051     0.85800
C644        C  0.35480110  0.16705837  0.75308812     0.92000
N645        N  0.56225954  0.22652653  0.78448689    -0.02200
C646        C  0.57037076  0.22877766  0.79447897     0.00400
C647        C  0.56401019  0.22738755  0.80605506    -0.22500
C648        C  0.55160481  0.22400940  0.80320211    -0.22700
C649        C  0.55076320  0.22343953  0.78998071     0.00300
H650        H  0.56809952  0.22819997  0.81556784     0.14000
H651        H  0.54408555  0.22180551  0.81004637     0.14100
N652        N  0.56562367  0.26813735  0.70204648    -0.02200
C653        C  0.57426980  0.27236898  0.69318664     0.00400
C654        C  0.56817658  0.27994024  0.68415545    -0.22500
C655        C  0.55543633  0.28033319  0.68749298    -0.22700
C656        C  0.55403376  0.27309045  0.69857375     0.00300
H657        H  0.57248727  0.28453622  0.67587027     0.14000
H658        H  0.54805836  0.28565904  0.68250553     0.14100
N659        N  0.45441318  0.19491812  0.76484218    -0.02200
C660        C  0.44588284  0.18531106  0.76731624     0.00400
C661        C  0.45217679  0.17491198  0.77267480    -0.22500
C662        C  0.46492290  0.17817166  0.77349814    -0.22700
C663        C  0.46605799  0.19053170  0.76876965     0.00300
H664        H  0.44796555  0.16585027  0.77558547     0.14000
H665        H  0.47247529  0.17231302  0.77754543     0.14100
N666        N  0.45803178  0.28336059  0.73722204    -0.02200
C667        C  0.44965826  0.29288725  0.74048716     0.00400
C668        C  0.45561258  0.30473341  0.73980042    -0.22500
C669        C  0.46799867  0.30257599  0.73585376    -0.22700
C670        C  0.46927563  0.28947099  0.73433292     0.00300
H671        H  0.45122432  0.31401372  0.74141775     0.14000
H672        H  0.47517241  0.30982937  0.73381203     0.14100
C673        C  0.44677913  0.22957360  0.75630086     0.17200
C674        C  0.44318706  0.24257515  0.75659407    -0.31800
C675        C  0.44933561  0.25102763  0.74801495     0.21600
C676        C  0.45841532  0.24666668  0.73932628     0.03800
C677        C  0.46197299  0.23368212  0.73898110    -0.21600
C678        C  0.45606654  0.22530284  0.74775641     0.13000
S679        S  0.44126384  0.21799022  0.76663740    -0.05200
C680        C  0.45182358  0.20742136  0.75956132    -0.08700
C681        C  0.45900482  0.21259550  0.74959209    -0.25300
S682        S  0.46526616  0.25848071  0.73024219    -0.02500
C683        C  0.45608962  0.26961408  0.73843139    -0.16000
C684        C  0.44794586  0.26415314  0.74755038    -0.14000
H685        H  0.43623032  0.24603090  0.76350889     0.21400
H686        H  0.46935884  0.23034267  0.73246555     0.17500
H687        H  0.46637002  0.20745007  0.74436566     0.20000
H688        H  0.44188974  0.26949318  0.75407822     0.13300
C689        C  0.52376413  0.27389950  0.72035554     0.17200
C690        C  0.51483890  0.27563827  0.73038683    -0.31800
C691        C  0.50199305  0.27819469  0.72703938     0.21600
C692        C  0.49821610  0.27877927  0.71428543     0.03800
C693        C  0.50706335  0.27685139  0.70432702    -0.21600
C694        C  0.51987306  0.27449618  0.70766180     0.13000
S695        S  0.54002421  0.27200360  0.72217428    -0.05200
C696        C  0.54157835  0.27211574  0.70562431    -0.08700
C697        C  0.52994089  0.27338277  0.69926085    -0.25300
S698        S  0.48253176  0.28292793  0.71206543    -0.02500
C699        C  0.48087741  0.28376534  0.72848794    -0.16000
C700        C  0.49203710  0.28111113  0.73527241    -0.14000
H701        H  0.51785238  0.27545859  0.74033117     0.21400
H702        H  0.50416858  0.27761275  0.69437082     0.17500
H703        H  0.52892387  0.27401022  0.68892944     0.20000
H704        H  0.49292694  0.28180017  0.74560885     0.13300
C705        C  0.52165876  0.20642332  0.77516298     0.17200
C706        C  0.51300826  0.19734813  0.77026897    -0.31800
C707        C  0.49988533  0.20030083  0.77073970     0.21600
C708        C  0.49551670  0.21183279  0.77574110     0.03800
C709        C  0.50419585  0.22097066  0.78057487    -0.21600
C710        C  0.51734847  0.21797418  0.78018109     0.13000
S711        S  0.53783416  0.20414240  0.77644528    -0.05200
C712        C  0.53894915  0.21911519  0.78342435    -0.08700
C713        C  0.52723316  0.22525403  0.78502116    -0.25300
S714        S  0.47913106  0.21315843  0.77612041    -0.02500
C715        C  0.47818131  0.19797322  0.76953548    -0.16000
C716        C  0.49001709  0.19234595  0.76720095    -0.14000
H717        H  0.51633907  0.18821462  0.76658235     0.21400
H718        H  0.50082929  0.22987874  0.78474575     0.17500
H719        H  0.52598705  0.23434638  0.78991243     0.20000
H720        H  0.49131572  0.18269363  0.76354806     0.13300
C721        C  0.56295086  0.23407888  0.74856146     0.17200
C722        C  0.55980838  0.23548295  0.73555192    -0.31800
C723        C  0.56504957  0.24599122  0.72892406     0.21600
C724        C  0.57336100  0.25453172  0.73488013     0.03800
C725        C  0.57658707  0.25304421  0.74787627    -0.21600
C726        C  0.57104160  0.24272767  0.75459888     0.13000
S727        S  0.55655663  0.22275345  0.75853637    -0.05200
C728        C  0.56452772  0.22988670  0.77116665    -0.08700
C729        C  0.57201381  0.24036830  0.76753514    -0.25300
S730        S  0.57804806  0.26713070  0.72541519    -0.02500
C731        C  0.56839940  0.26100496  0.71350228    -0.16000
C732        C  0.56218084  0.24965498  0.71660695    -0.14000
H733        H  0.55314082  0.22897623  0.73094160     0.21400
H734        H  0.58272754  0.25992751  0.75266875     0.17500
H735        H  0.57726170  0.24646236  0.77410360     0.20000
H736        H  0.55544256  0.24475075  0.71040592     0.13300
C737        C  0.38952460  0.17092474  0.76495418     0.17200
C738        C  0.40070874  0.17167384  0.77236264    -0.31800
C739        C  0.41149010  0.17763919  0.76688921     0.21600
C740        C  0.41122048  0.18270388  0.75457966     0.03800
C741        C  0.40003065  0.18179941  0.74706775    -0.21600
C742        C  0.38920583  0.17574869  0.75253712     0.13000
S743        S  0.37529480  0.16467719  0.77021213    -0.05200
C744        C  0.36873056  0.16843279  0.75549804    -0.08700
C745        C  0.37730538  0.17418184  0.74697754    -0.25300
S746        S  0.42554345  0.18935888  0.74974923    -0.02500
C747        C  0.43194979  0.18507357  0.76441741    -0.16000
C748        C  0.42328690  0.17893771  0.77251693    -0.14000
H749        H  0.40097718  0.16782274  0.78202831     0.21400
H750        H  0.39976650  0.18565050  0.73740669     0.17500
H751        H  0.37480754  0.17756978  0.73746954     0.20000
H752        H  0.42565002  0.17520376  0.78193545     0.13300
C753        C  0.39221271  0.29785414  0.73416154     0.17200
C754        C  0.40368962  0.29316509  0.72878421    -0.31800
C755        C  0.41469042  0.29293988  0.73660209     0.21600
C756        C  0.41423671  0.29718171  0.74921439     0.03800
C757        C  0.40272622  0.30163444  0.75464813    -0.21600
C758        C  0.39176354  0.30191117  0.74682981     0.13000
S759        S  0.37790733  0.29929934  0.72621805    -0.05200
C760        C  0.37119782  0.30537026  0.74013393    -0.08700
C761        C  0.37975331  0.30615321  0.75032449    -0.25300
S762        S  0.42882085  0.29752869  0.75667699    -0.02500
C763        C  0.43567430  0.29174098  0.74275643    -0.16000
C764        C  0.42696439  0.28966210  0.73288640    -0.14000
H765        H  0.40409336  0.29009977  0.71885557     0.21400
H766        H  0.40241042  0.30506855  0.76445909     0.17500
H767        H  0.37729230  0.30955870  0.75984063     0.20000
H768        H  0.42962717  0.28690519  0.72321537     0.13300
C769        C  0.32915760  0.22739104  0.73857920     0.17200
C770        C  0.32885944  0.23945639  0.73261793    -0.31800
C771        C  0.32969646  0.25031304  0.74052978     0.21600
C772        C  0.33076492  0.24921479  0.75376714     0.03800
C773        C  0.33098127  0.23716949  0.75972042    -0.21600
C774        C  0.33014942  0.22633259  0.75182574     0.13000
S775        S  0.32854315  0.21303262  0.73071682    -0.05200
C776        C  0.32962176  0.20558149  0.74546293    -0.08700
C777        C  0.33034285  0.21383781  0.75583800    -0.25300
S778        S  0.33180715  0.26349345  0.76168147    -0.02500
C779        C  0.33073901  0.27105631  0.74700718    -0.16000
C780        C  0.32966574  0.26285774  0.73658181    -0.14000
H781        H  0.32808596  0.24034242  0.72228142     0.21400
H782        H  0.33182595  0.23628016  0.77005126     0.17500
H783        H  0.33111184  0.21085568  0.76577902     0.20000
H784        H  0.32894183  0.26590859  0.72665908     0.13300
C785        C  0.25023951  0.31175290  0.76125508     0.17200
C786        C  0.26296991  0.31145899  0.76566446    -0.31800
C787        C  0.27281549  0.31221208  0.75643893     0.21600
C788        C  0.27006378  0.31327874  0.74345138     0.03800
C789        C  0.25738930  0.31371310  0.73908401    -0.21600
C790        C  0.24758719  0.31287703  0.74825621     0.13000
S791        S  0.23686840  0.31069672  0.77075717    -0.05200
C792        C  0.22766602  0.31182296  0.75703473    -0.08700
C793        C  0.23469574  0.31293043  0.74578307    -0.25300
S794        S  0.28319470  0.31361510  0.73369474    -0.02500
C795        C  0.29261619  0.31226977  0.74719412    -0.16000
C796        C  0.28580475  0.31172101  0.75867284    -0.14000
H797        H  0.26510026  0.31053774  0.77579974     0.21400
H798        H  0.25525678  0.31450559  0.72893694     0.17500
H799        H  0.23058997  0.31374818  0.73626953     0.20000
H800        H  0.29010133  0.31076600  0.76808612     0.13300
C801        C  0.24644846  0.16677876  0.75351318     0.17200
C802        C  0.25856793  0.16550010  0.75916924    -0.31800
C803        C  0.26937549  0.16676700  0.75121434     0.21600
C804        C  0.26823492  0.16923422  0.73818036     0.03800
C805        C  0.25607637  0.17068472  0.73253159    -0.21600
C806        C  0.24522597  0.16934834  0.74050199     0.13000
S807        S  0.23220514  0.16522830  0.76151916    -0.05200
C808        C  0.22440226  0.16806212  0.74721265    -0.08700
C809        C  0.23257612  0.17012810  0.73682890    -0.25300
S810        S  0.28263605  0.17007169  0.73020999    -0.02500
C811        C  0.29022751  0.16713840  0.74463519    -0.16000
C812        C  0.28191652  0.16565356  0.75496591    -0.14000
H813        H  0.25953322  0.16347621  0.76932797     0.21400
H814        H  0.25511082  0.17262212  0.72235787     0.17500
H815        H  0.22943384  0.17203346  0.72710445     0.20000
H816        H  0.28490239  0.16376035  0.76474511     0.13300
C817        C  0.18628282  0.25162678  0.74575169     0.17200
C818        C  0.18636970  0.23994473  0.73912254    -0.31800
C819        C  0.18540939  0.22865449  0.74637563     0.21600
C820        C  0.18428467  0.22893507  0.75964880     0.03800
C821        C  0.18412825  0.24065997  0.76629713    -0.21600
C822        C  0.18522263  0.25198867  0.75903326     0.13000
S823        S  0.18759172  0.26630105  0.73863457    -0.05200
C824        C  0.18679813  0.27309544  0.75369870    -0.08700
C825        C  0.18551953  0.26433385  0.76367842    -0.25300
S826        S  0.18342022  0.21408754  0.76663610    -0.02500
C827        C  0.18470803  0.20749061  0.75150224    -0.16000
C828        C  0.18563117  0.21640295  0.74165189    -0.14000
H829        H  0.18727639  0.23966437  0.72875840     0.21400
H830        H  0.18332404  0.24093435  0.77666660     0.17500
H831        H  0.18485458  0.26685121  0.77374851     0.20000
H832        H  0.18652092  0.21404455  0.73155638     0.13300
C833        C  0.10538913  0.19058438  0.73390826     0.17200
C834        C  0.11847665  0.19110291  0.73067474    -0.31800
C835        C  0.12689367  0.18274394  0.73711365     0.21600
C836        C  0.12255471  0.17450062  0.74664918     0.03800
C837        C  0.10944127  0.17392259  0.74983408    -0.21600
C838        C  0.10096801  0.18203387  0.74313103     0.13000
S839        S  0.09354729  0.19935384  0.72662613    -0.05200
C840        C  0.08243011  0.19121308  0.73584900    -0.08700
C841        C  0.08780830  0.18228959  0.74421443    -0.25300
S842        S  0.13442869  0.16546923  0.75360502    -0.02500
C843        C  0.14530308  0.17253060  0.74324362    -0.16000
C844        C  0.13987687  0.18154927  0.73502484    -0.14000
H845        H  0.12191660  0.19756792  0.72326863     0.21400
H846        H  0.10596550  0.16728920  0.75707330     0.17500
H847        H  0.08232009  0.17598734  0.75043362     0.20000
H848        H  0.14522280  0.18716598  0.72806780     0.13300
C849        C  0.06313412  0.25972149  0.74028339     0.17200
C850        C  0.05996550  0.25000440  0.73152990    -0.31800
C851        C  0.06389767  0.23744798  0.73439114     0.21600
C852        C  0.07104323  0.23475596  0.74527414     0.03800
C853        C  0.07460501  0.24454798  0.75382016    -0.21600
C854        C  0.07031265  0.25704889  0.75117647     0.13000
S855        S  0.05750244  0.27508211  0.73951003    -0.05200
C856        C  0.06465666  0.27786635  0.75413839    -0.08700
C857        C  0.07140407  0.26753779  0.75910014    -0.25300
S858        S  0.07375740  0.21878071  0.74768783    -0.02500
C859        C  0.06506066  0.21561349  0.73392203    -0.16000
C860        C  0.06054824  0.22654821  0.72777736    -0.14000
H861        H  0.05404305  0.25202079  0.72323167     0.21400
H862        H  0.07986636  0.24239345  0.76251816     0.17500
H863        H  0.07599771  0.26744878  0.76841924     0.20000
H864        H  0.05482913  0.22663062  0.71915521     0.13300
C865        C  0.10705203  0.30012379  0.77113949     0.17200
C866        C  0.11928748  0.30322676  0.77579335    -0.31800
C867        C  0.12907417  0.30541142  0.76678200     0.21600
C868        C  0.12680818  0.30445620  0.75370158     0.03800
C869        C  0.11459584  0.30113400  0.74904279    -0.21600
C870        C  0.10476542  0.29900348  0.75806751     0.13000
S871        S  0.09370252  0.29850285  0.78049141    -0.05200
C872        C  0.08486879  0.29622714  0.76670185    -0.08700
C873        C  0.09203810  0.29657586  0.75545881    -0.25300
S874        S  0.13996996  0.30759837  0.74436643    -0.02500
C875        C  0.14866505  0.31012154  0.75823302    -0.16000
C876        C  0.14157171  0.30863858  0.76944385    -0.14000
H877        H  0.12103011  0.30419252  0.78599882     0.21400
H878        H  0.11278269  0.30047234  0.73882749     0.17500
H879        H  0.08800903  0.29609092  0.74589273     0.20000
H880        H  0.14541689  0.30959929  0.77905149     0.13300
C881        C  0.99656667  0.21497217  0.71009348     0.17200
C882        C  0.00459914  0.21187987  0.72050511    -0.31800
C883        C  0.01787347  0.21081294  0.71814422     0.21600
C884        C  0.02292015  0.21290039  0.70599267     0.03800
C885        C  0.01491275  0.21606592  0.69562850    -0.21600
C886        C  0.00165629  0.21694566  0.69795058     0.13000
S887        S  0.98013529  0.21586318  0.71066886    -0.05200
C888        C  0.98008835  0.21883088  0.69432582    -0.08700
C889        C  0.99230428  0.21911930  0.68892711    -0.25300
S890        S  0.03903430  0.20999380  0.70480965    -0.02500
C891        C  0.03913022  0.20602743  0.72090605    -0.16000
C892        C  0.02712128  0.20681532  0.72671150    -0.14000
H893        H  0.00063400  0.20999377  0.72994309     0.21400
H894        H  0.01880441  0.21735528  0.68605967     0.17500
H895        H  0.99424511  0.22052429  0.67879907     0.20000
H896        H  0.02512497  0.20380368  0.73647387     0.13300
C897        C  0.00245707  0.26139482  0.76820198     0.17200
C898        C  0.01588576  0.26130179  0.76689608    -0.31800
C899        C  0.02200995  0.27293573  0.76374122     0.21600
C900        C  0.01500110  0.28403358  0.76155448     0.03800
C901        C  0.00157736  0.28404430  0.76252897    -0.21600
C902        C  0.99550528  0.27254726  0.76611863     0.13000
S903        S  0.99346724  0.24888818  0.77396775    -0.05200
C904        C  0.98020594  0.25877540  0.77359731    -0.08700
C905        C  0.98276591  0.27110967  0.76922432    -0.25300
S906        S  0.02413605  0.29747104  0.75940116    -0.02500
C907        C  0.03763392  0.28818848  0.76169422    -0.16000
C908        C  0.03502728  0.27523373  0.76372807    -0.14000
H909        H  0.02137361  0.25273589  0.76902173     0.21400
H910        H  0.99616645  0.29283696  0.76132348     0.17500
H911        H  0.97586138  0.27887526  0.76921593     0.20000
H912        H  0.04216403  0.26808252  0.76612643     0.13300
C913        C  0.95408917  0.25281251  0.73936146     0.17200
C914        C  0.95728626  0.25324535  0.72627731    -0.31800
C915        C  0.95373930  0.24271928  0.71865699     0.21600
C916        C  0.94680299  0.23248391  0.72370325     0.03800
C917        C  0.94337010  0.23220269  0.73671077    -0.21600
C918        C  0.94738911  0.24246067  0.74443474     0.13000
S919        S  0.95935417  0.26352862  0.75058133    -0.05200
C920        C  0.95296418  0.25366324  0.76228702    -0.08700
C921        C  0.94656778  0.24298971  0.75754686    -0.25300
S922        S  0.94419634  0.22019602  0.71316914    -0.02500
C923        C  0.95287760  0.22878122  0.70203015    -0.16000
C924        C  0.95728234  0.24062107  0.70614911    -0.14000
H925        H  0.96296783  0.26105801  0.72238227     0.21400
H926        H  0.93843694  0.22398412  0.74078840     0.17500
H927        H  0.94255337  0.23540676  0.76345123     0.20000
H928        H  0.96318049  0.24704513  0.70045821     0.13300
C929        C  0.30959058  0.08742489  0.76377369     0.17200
C930        C  0.30971725  0.10041187  0.76735191    -0.31800
C931        C  0.31747044  0.10883204  0.76018827     0.21600
C932        C  0.32460963  0.10459331  0.74977150     0.03800
C933        C  0.32461847  0.09158213  0.74629934    -0.21600
C934        C  0.31702346  0.08312808  0.75359133     0.13000
S935        S  0.30132914  0.07554108  0.77161781    -0.05200
C936        C  0.30823681  0.06464205  0.76128679    -0.08700
C937        C  0.31633040  0.07006222  0.75217475    -0.25300
S938        S  0.33280326  0.11647889  0.74188260    -0.02500
C939        C  0.32672654  0.12722681  0.75289083    -0.16000
C940        C  0.31880869  0.12177990  0.76213877    -0.14000
H941        H  0.30410724  0.10378916  0.77543511     0.21400
H942        H  0.33034447  0.08818192  0.73830684     0.17500
H943        H  0.32190081  0.06462618  0.74527505     0.20000
H944        H  0.31387189  0.12710926  0.76958414     0.13300
C945        C  0.24705123  0.05191512  0.74038466     0.17200
C946        C  0.26030072  0.05436942  0.74001304    -0.31800
C947        C  0.26753350  0.05121195  0.75095038     0.21600
C948        C  0.26175485  0.04625550  0.76190833     0.03800
C949        C  0.24850699  0.04406964  0.76237353    -0.21600
C950        C  0.24136860  0.04675367  0.75130924     0.13000
S951        S  0.23681116  0.05364828  0.72766384    -0.05200
C952        C  0.22498098  0.04695796  0.73710960    -0.08700
C953        C  0.22868036  0.04388292  0.74946899    -0.25300
S954        S  0.27220771  0.04184207  0.77369750    -0.02500
C955        C  0.28456657  0.04634552  0.76366372    -0.16000
C956        C  0.28066857  0.05143663  0.75197058    -0.14000
H957        H  0.26486130  0.05795413  0.73136284     0.21400
H958        H  0.24406130  0.03978620  0.77076325     0.17500
H959        H  0.22252883  0.03930599  0.75651414     0.20000
H960        H  0.28712323  0.05427118  0.74430855     0.13300
C961        C  0.20075752  0.08697936  0.74100594     0.17200
C962        C  0.20045296  0.09863535  0.74782911    -0.31800
C963        C  0.19445480  0.10923868  0.74196075     0.21600
C964        C  0.18920897  0.10833754  0.72976716     0.03800
C965        C  0.18936495  0.09667926  0.72304657    -0.21600
C966        C  0.19516923  0.08606538  0.72897521     0.13000
S967        S  0.20729427  0.07284350  0.74642416    -0.05200
C968        C  0.20221761  0.06563220  0.73240512    -0.08700
C969        C  0.19588661  0.07387841  0.72408202    -0.25300
S970        S  0.18294120  0.12239243  0.72402756    -0.02500
C971        C  0.18709079  0.12955623  0.73833631    -0.16000
C972        C  0.19312710  0.12137818  0.74699181    -0.14000
H973        H  0.20464556  0.09939378  0.75730635     0.21400
H974        H  0.18512035  0.09590405  0.71359202     0.17500
H975        H  0.19177266  0.07100993  0.71497778     0.20000
H976        H  0.19669823  0.12427056  0.75631439     0.13300
C977        C  0.28102924  0.98410413  0.79526522     0.17200
C978        C  0.28225385  0.99752885  0.79587621    -0.31800
C979        C  0.28660802  0.00398526  0.78485052     0.21600
C980        C  0.28934721  0.99738257  0.77361493     0.03800
C981        C  0.28786238  0.98397009  0.77292586    -0.21600
C982        C  0.28376702  0.97746890  0.78404922     0.13000
S983        S  0.27751542  0.97446599  0.80806949    -0.05200
C984        C  0.27977734  0.96126827  0.79830876    -0.08700
C985        C  0.28297446  0.96434596  0.78570333    -0.25300
S986        S  0.29590876  0.00673714  0.76179250    -0.02500
C987        C  0.29495700  0.01967815  0.77205588    -0.16000
C988        C  0.28979091  0.01678844  0.78400395    -0.14000
H989        H  0.28050252  0.00264560  0.80476044     0.21400
H990        H  0.29039797  0.97876398  0.76428741     0.17500
H991        H  0.28543458  0.95738513  0.77838256     0.20000
H992        H  0.28927942  0.02348652  0.79194328     0.13300
C993        C  0.22570664  0.97637161  0.72064218     0.17200
C994        C  0.21594854  0.98474801  0.72455908    -0.31800
C995        C  0.21900662  0.99780178  0.72594306     0.21600
C996        C  0.23128907  0.00238211  0.72373496     0.03800
C997        C  0.24116709  0.99393198  0.71998883    -0.21600
C998        C  0.23805167  0.98082918  0.71841552     0.13000
S999        S  0.22345753  0.96050265  0.71711746    -0.05200
C1000       C  0.23941970  0.95960852  0.71291066    -0.08700
C1001       C  0.24596723  0.97122661  0.71389300    -0.25300
S1002       S  0.23258867  0.01879663  0.72501846    -0.02500
C1003       C  0.21634071  0.01947377  0.72836049    -0.16000
C1004       C  0.21050902  0.00745610  0.72867177    -0.14000
H1005       H  0.20623952  0.98131032  0.72599336    -0.05000
H1006       H  0.25072788  0.99747688  0.71795501     0.17500
H1007       H  0.25581546  0.97267929  0.71089608     0.20000
H1008       H  0.20037040  0.00585597  0.73029666     0.13300
C1009       C  0.25722262  0.93819811  0.76766757     0.17200
C1010       C  0.24887323  0.94152526  0.75767443    -0.31800
C1011       C  0.25139472  0.93645726  0.74544946     0.21600
C1012       C  0.26168043  0.92833170  0.74327856     0.03800
C1013       C  0.26986173  0.92473808  0.75334022    -0.21600
C1014       C  0.26742460  0.92990646  0.76555091     0.13000
S1015       S  0.25649021  0.94431334  0.78286324    -0.05200
C1016       C  0.27005264  0.93558091  0.78639247    -0.08700
C1017       C  0.27475619  0.92823614  0.77635372    -0.25300
S1018       S  0.26372782  0.92416712  0.72755260    -0.02500
C1019       C  0.25057642  0.93352524  0.72378721    -0.16000
C1020       C  0.24489422  0.93930538  0.73438454    -0.14000
H1021       H  0.24102436  0.94814829  0.75925532     0.21400
H1022       H  0.27802394  0.91854264  0.75163436     0.17500
H1023       H  0.28340721  0.92251162  0.77679112     0.20000
H1024       H  0.23665465  0.94552226  0.73414913     0.13300
C1025       C  0.25473086  0.54814518  0.75734623     0.17200
C1026       C  0.25236105  0.54959061  0.74419462    -0.31800
C1027       C  0.26226101  0.54641235  0.73564408     0.21600
C1028       C  0.27414512  0.54226474  0.73993922     0.03800
C1029       C  0.27654833  0.54087536  0.75312043    -0.21600
C1030       C  0.26651907  0.54375128  0.76167415     0.13000
S1031       S  0.24354273  0.55035781  0.76916160    -0.05200
C1032       C  0.25478196  0.54505441  0.77997521    -0.08700
C1033       C  0.26656941  0.54190514  0.77470343    -0.25300
S1034       S  0.28470157  0.53844149  0.72791456    -0.02500
C1035       C  0.27274467  0.54201887  0.71707663    -0.16000
C1036       C  0.26144319  0.54636086  0.72254154    -0.14000
H1037       H  0.24305309  0.55263506  0.74075256     0.21400
H1038       H  0.28567289  0.53729451  0.75653657     0.17500
H1039       H  0.27447575  0.53783396  0.78005801     0.20000
H1040       H  0.25291732  0.54887666  0.71718329     0.13300
C1041       C  0.29369776  0.49716687  0.70443517     0.17200
C1042       C  0.30083345  0.48586412  0.70357464    -0.31800
C1043       C  0.29965905  0.47694732  0.71353454     0.21600
C1044       C  0.29171024  0.47909123  0.72400244     0.03800
C1045       C  0.28437744  0.49046258  0.72481226    -0.21600
C1046       C  0.28556591  0.49947649  0.71472617     0.13000
S1047       S  0.29404198  0.50894581  0.69317034    -0.05200
C1048       C  0.28303515  0.51736112  0.70219441    -0.08700
C1049       C  0.27925912  0.51108698  0.71343862    -0.25300
S1050       S  0.29223218  0.46700470  0.73525830    -0.02500
C1051       C  0.30309827  0.45906001  0.72551625    -0.16000
C1052       C  0.30615887  0.46559124  0.71436129    -0.14000
H1053       H  0.30712404  0.48411834  0.69546859     0.21400
H1054       H  0.27812333  0.49223184  0.73293446     0.17500
H1055       H  0.27207048  0.51457898  0.72008047     0.20000
H1056       H  0.31300176  0.46225314  0.70726866     0.13300
C1057       C  0.32896083  0.37231410  0.74540810     0.17200
C1058       C  0.32971469  0.38516375  0.74934863    -0.31800
C1059       C  0.32207420  0.39418885  0.74291648     0.21600
C1060       C  0.31381920  0.39059832  0.73313560     0.03800
C1061       C  0.31314448  0.37771534  0.72909441    -0.21600
C1062       C  0.32102656  0.36870494  0.73536324     0.13000
S1063       S  0.33727321  0.35993385  0.75224134    -0.05200
C1064       C  0.33031400  0.34976383  0.74123630    -0.08700
C1065       C  0.32189663  0.35576345  0.73280555    -0.25300
S1066       S  0.30574329  0.40321723  0.72629127    -0.02500
C1067       C  0.31387474  0.41342295  0.73648260    -0.16000
C1068       C  0.32217801  0.40721894  0.74482187    -0.14000
H1069       H  0.33610324  0.38803419  0.75701846     0.21400
H1070       H  0.30691184  0.37487820  0.72128604     0.17500
H1071       H  0.31634444  0.35083117  0.72553720     0.20000
H1072       H  0.32849524  0.41209231  0.75147946     0.13300
C1073       C  0.22749817  0.48394456  0.76894413     0.17200
C1074       C  0.22839521  0.49740917  0.76926483    -0.31800
C1075       C  0.23834016  0.50290446  0.77650372     0.21600
C1076       C  0.24725757  0.49529916  0.78279227     0.03800
C1077       C  0.24673991  0.48182073  0.78192203    -0.21600
C1078       C  0.23652466  0.47631737  0.77504549     0.13000
S1079       S  0.21476749  0.47560959  0.76285920    -0.05200
C1080       C  0.22160430  0.46164780  0.76855357    -0.08700
C1081       C  0.23330361  0.46347148  0.77466088    -0.25300
S1082       S  0.25705122  0.50363468  0.79298996    -0.02500
C1083       C  0.24903928  0.51750111  0.78881215    -0.16000
C1084       C  0.23949532  0.51567928  0.77971884    -0.14000
H1085       H  0.22107829  0.50334054  0.76488722     0.21400
H1086       H  0.25342134  0.47587647  0.78720637     0.17500
H1087       H  0.23863412  0.45596459  0.77947174     0.20000
H1088       H  0.23284341  0.52306547  0.77669910     0.13300
C1089       C  0.25375980  0.42980888  0.75851845     0.17200
C1090       C  0.26686098  0.42685944  0.75881855    -0.31800
C1091       C  0.27416477  0.42964584  0.74783310     0.21600
C1092       C  0.26864161  0.43490524  0.73691294     0.03800
C1093       C  0.25552418  0.43779984  0.73658058    -0.21600
C1094       C  0.24827936  0.43526570  0.74766648     0.13000
S1095       S  0.24342054  0.42783188  0.77113794    -0.05200
C1096       C  0.23172573  0.43460266  0.76172139    -0.08700
C1097       C  0.23559323  0.43811280  0.74949264    -0.25300
S1098       S  0.27929563  0.43842020  0.72492919    -0.02500
C1099       C  0.29135936  0.43323144  0.73496806    -0.16000
C1100       C  0.28720454  0.42852393  0.74670413    -0.14000
H1101       H  0.27125061  0.42293769  0.76738509     0.21400
H1102       H  0.25124130  0.44222776  0.72820614     0.17500
H1103       H  0.22949028  0.44272948  0.74246767     0.20000
H1104       H  0.29349376  0.42533744  0.75432998     0.13300
C1105       C  0.20804329  0.39237054  0.76978545     0.17200
C1106       C  0.20729219  0.37965030  0.77429126    -0.31800
C1107       C  0.20053311  0.37067695  0.76681163     0.21600
C1108       C  0.19504911  0.37415563  0.75519704     0.03800
C1109       C  0.19575247  0.38687108  0.75071552    -0.21600
C1110       C  0.20225517  0.39589695  0.75833642     0.13000
S1111       S  0.21492684  0.40489423  0.77791628    -0.05200
C1112       C  0.20974817  0.41502269  0.76591112    -0.08700
C1113       C  0.20314488  0.40888991  0.75610738    -0.25300
S1114       S  0.18771150  0.36178529  0.74730065    -0.02500
C1115       C  0.19179279  0.35181984  0.75989462    -0.16000
C1116       C  0.19856977  0.35789313  0.76963566    -0.14000
H1117       H  0.21157965  0.37692359  0.78335590     0.21400
H1118       H  0.19125708  0.38964868  0.74176666     0.17500
H1119       H  0.19862594  0.41379890  0.74813573     0.20000
H1120       H  0.20225814  0.35311303  0.77809998     0.13300
C1121       C  0.91183316  0.25445078  0.78690654     0.17200
C1122       C  0.89923338  0.25920658  0.78735487    -0.31800
C1123       C  0.89008451  0.25216445  0.79440161     0.21600
C1124       C  0.89324047  0.24073270  0.80046180     0.03800
C1125       C  0.90583560  0.23602719  0.80007938    -0.21600
C1126       C  0.91503943  0.24321547  0.79329505     0.13000
S1127       S  0.92456311  0.26194325  0.77959363    -0.05200
C1128       C  0.93435936  0.25003569  0.78557856    -0.08700
C1129       C  0.92792356  0.24067367  0.79259602    -0.25300
S1130       S  0.88066031  0.23337496  0.80809843    -0.02500
C1131       C  0.87107729  0.24599186  0.80336436    -0.16000
C1132       C  0.87741165  0.25529963  0.79615672    -0.14000
H1133       H  0.89672043  0.26811536  0.78261003     0.21400
H1134       H  0.90839609  0.22723628  0.80501650     0.17500
H1135       H  0.93254941  0.23272254  0.79744133     0.20000
H1136       H  0.87288624  0.26373156  0.79209118     0.13300
C1137       C  0.62952473  0.26963922  0.67537136     0.17200
C1138       C  0.61901263  0.27742785  0.67844870    -0.31800
C1139       C  0.60833947  0.27160553  0.68426121     0.21600
C1140       C  0.60810915  0.25859375  0.68707262     0.03800
C1141       C  0.61869642  0.25074424  0.68398874    -0.21600
C1142       C  0.62937614  0.25657289  0.67797482     0.13000
S1143       S  0.64339562  0.27508613  0.66851340    -0.05200
C1144       C  0.64921594  0.25960585  0.66896799    -0.08700
C1145       C  0.64065171  0.25071260  0.67420244    -0.25300
S1146       S  0.59381155  0.25343548  0.69356333    -0.02500
C1147       C  0.58807279  0.26894247  0.69217596    -0.16000
C1148       C  0.59698400  0.27754024  0.68719223    -0.14000
H1149       H  0.61909669  0.28760645  0.67627408     0.21400
H1150       H  0.61854627  0.24053975  0.68601831     0.17500
H1151       H  0.64276175  0.24063110  0.67565473     0.20000
H1152       H  0.59501580  0.28756019  0.68518768     0.13300
C1153       C  0.62613145  0.24053023  0.80608352     0.17200
C1154       C  0.61329956  0.24423985  0.80766660    -0.31800
C1155       C  0.60391550  0.23740191  0.80083394     0.21600
C1156       C  0.60714118  0.22743422  0.79261975     0.03800
C1157       C  0.61996629  0.22358302  0.79119608    -0.21600
C1158       C  0.62933471  0.23029092  0.79819772     0.13000
S1159       S  0.63896943  0.24782207  0.81325420    -0.05200
C1160       C  0.64873916  0.23676997  0.80579059    -0.08700
C1161       C  0.64228469  0.22797227  0.79814287    -0.25300
S1162       S  0.59426683  0.22028787  0.78532754    -0.02500
C1163       C  0.58442636  0.23061779  0.79370205    -0.16000
C1164       C  0.59090771  0.23918973  0.80156732    -0.14000
H1165       H  0.61073161  0.25207914  0.81399684     0.21400
H1166       H  0.62252209  0.21565007  0.78497966     0.17500
H1167       H  0.64687247  0.22048965  0.79256622     0.20000
H1168       H  0.58628757  0.24608433  0.80783295     0.13300
C1169       C  0.74983545  0.23374678  0.80627088     0.17200
C1170       C  0.76237696  0.22901233  0.80656429    -0.31800
C1171       C  0.77239026  0.23798091  0.80630548     0.21600
C1172       C  0.77006682  0.25108227  0.80556848     0.03800
C1173       C  0.75750815  0.25582350  0.80519477    -0.21600
C1174       C  0.74747765  0.24685139  0.80568214     0.13000
S1175       S  0.73640122  0.22442879  0.80693717    -0.05200
C1176       C  0.72749488  0.23834260  0.80667955    -0.08700
C1177       C  0.73463837  0.24955757  0.80591307    -0.25300
S1178       S  0.78357271  0.26035890  0.80543100    -0.02500
C1179       C  0.79240340  0.24641924  0.80650230    -0.16000
C1180       C  0.78518974  0.23524652  0.80686509    -0.14000
H1181       H  0.76424704  0.21879512  0.80715486     0.21400
H1182       H  0.75563787  0.26604692  0.80474077     0.17500
H1183       H  0.73065670  0.25915946  0.80561546     0.20000
H1184       H  0.78910099  0.22563078  0.80749908     0.13300
C1185       C  0.68941351  0.23867075  0.72410890     0.17200
C1186       C  0.68924438  0.23198475  0.73579394    -0.31800
C1187       C  0.68946959  0.23921091  0.74714344     0.21600
C1188       C  0.68994821  0.25252500  0.74691498     0.03800
C1189       C  0.69028117  0.25923181  0.73519880    -0.21600
C1190       C  0.68995493  0.25198386  0.72381780     0.13000
S1191       S  0.68867536  0.23161174  0.70934058    -0.05200
C1192       C  0.68908845  0.24673710  0.70261048    -0.08700
C1193       C  0.68984761  0.25668037  0.71147625    -0.25300
S1194       S  0.68979827  0.25946319  0.76180717    -0.02500
C1195       C  0.68903245  0.24424596  0.76837628    -0.16000
C1196       C  0.68900902  0.23441592  0.75940043    -0.14000
H1197       H  0.68876496  0.22159117  0.73603001     0.21400
H1198       H  0.69059682  0.26963119  0.73496405     0.17500
H1199       H  0.69011827  0.26679565  0.70903129     0.20000
H1200       H  0.68854207  0.22427625  0.76171468     0.13300
C1201       C  0.89132227  0.21996025  0.66845541     0.17200
C1202       C  0.90260001  0.21285273  0.67014829    -0.31800
C1203       C  0.91365620  0.21946896  0.67402820     0.21600
C1204       C  0.91353389  0.23260054  0.67624105     0.03800
C1205       C  0.90225207  0.23977875  0.67434901    -0.21600
C1206       C  0.89116433  0.23314376  0.67036511     0.13000
S1207       S  0.87683175  0.21351315  0.66436555    -0.05200
C1208       C  0.87037097  0.22872450  0.66510918    -0.08700
C1209       C  0.87916481  0.23827341  0.66828421    -0.25300
S1210       S  0.92810684  0.23872016  0.68087593    -0.02500
C1211       C  0.93440307  0.22345183  0.67954701    -0.16000
C1212       C  0.92557705  0.21422121  0.67580888    -0.14000
H1213       H  0.90273879  0.20257275  0.66855646     0.21400
H1214       H  0.90211354  0.25005671  0.67593957     0.17500
H1215       H  0.87680059  0.24832921  0.66948795     0.20000
H1216       H  0.92787213  0.20421128  0.67415535     0.13300
C1217       C  0.77088332  0.24886799  0.65936786     0.17200
C1218       C  0.75939287  0.25582239  0.65882229    -0.31800
C1219       C  0.74787145  0.24896410  0.66010208     0.21600
C1220       C  0.74775967  0.23573041  0.66166689     0.03800
C1221       C  0.75927140  0.22875950  0.66221137    -0.21600
C1222       C  0.77082012  0.23565281  0.66109741     0.13000
S1223       S  0.78583184  0.25550809  0.65839222    -0.05200
C1224       C  0.79214664  0.24036469  0.66055886    -0.08700
C1225       C  0.78301487  0.23069999  0.66176139    -0.25300
S1226       S  0.73273401  0.22923265  0.66297415    -0.02500
C1227       C  0.72655421  0.24453140  0.66155095    -0.16000
C1228       C  0.73575208  0.25407160  0.66010197    -0.14000
H1229       H  0.75943683  0.26615690  0.65759619     0.21400
H1230       H  0.75923033  0.21844215  0.66356976     0.17500
H1231       H  0.78517609  0.22062859  0.66321691     0.20000
H1232       H  0.73367995  0.26421605  0.65908065     0.13300
C1233       C  0.83194654  0.24787351  0.72328974     0.17200
C1234       C  0.83283977  0.25418286  0.73515955    -0.31800
C1235       C  0.83181922  0.24669545  0.74635080     0.21600
C1236       C  0.83002450  0.23350516  0.74577866     0.03800
C1237       C  0.82909391  0.22720042  0.73391050    -0.21600
C1238       C  0.83009145  0.23469242  0.72272147     0.13000
S1239       S  0.83303272  0.25519197  0.70859613    -0.05200
C1240       C  0.83095361  0.24032789  0.70159250    -0.08700
C1241       C  0.82949248  0.23032004  0.71031378    -0.25300
S1242       S  0.82915042  0.22615649  0.76046530    -0.02500
C1243       C  0.83117815  0.24102806  0.76747435    -0.16000
C1244       C  0.83244387  0.25106547  0.75876285    -0.14000
H1245       H  0.83428743  0.26447582  0.73565372     0.21400
H1246       H  0.82768176  0.21690197  0.73341572     0.17500
H1247       H  0.82813810  0.22033743  0.70771266     0.20000
H1248       H  0.83380545  0.26104371  0.76137422     0.13300
C1249       C  0.27502471  0.60624437  0.69087881     0.17200
C1250       C  0.28066954  0.59484963  0.69530474    -0.31800
C1251       C  0.27304451  0.58374172  0.69563488     0.21600
C1252       C  0.26032231  0.58398549  0.69178404     0.03800
C1253       C  0.25457739  0.59547607  0.68764925    -0.21600
C1254       C  0.26224971  0.60658243  0.68721764     0.13000
S1255       S  0.28286279  0.62054802  0.68929822    -0.05200
C1256       C  0.26878458  0.62720065  0.68373616    -0.08700
C1257       C  0.25857267  0.61862613  0.68316318    -0.25300
S1258       S  0.25323292  0.56917827  0.69125414    -0.02500
C1259       C  0.26750990  0.56261606  0.69635466    -0.16000
C1260       C  0.27715755  0.57153123  0.69846023    -0.14000
H1261       H  0.29068955  0.59457433  0.69801459     0.21400
H1262       H  0.24468977  0.59565372  0.68448798     0.17500
H1263       H  0.24896588  0.62109641  0.68010144     0.20000
H1264       H  0.28698394  0.56907138  0.70074704     0.13300
C1265       C  0.28243934  0.87022024  0.81623627     0.17200
C1266       C  0.28935110  0.88150899  0.81376686    -0.31800
C1267       C  0.28250266  0.89240266  0.80984634     0.21600
C1268       C  0.26932636  0.89209898  0.80817876     0.03800
C1269       C  0.26235808  0.88070330  0.81060008    -0.21600
C1270       C  0.26922796  0.86979954  0.81481395     0.13000
S1271       S  0.28915967  0.85613914  0.82122228    -0.05200
C1272       C  0.27404270  0.84943590  0.82164961    -0.08700
C1273       C  0.26431203  0.85786014  0.81799701    -0.25300
S1274       S  0.26287365  0.90678397  0.80420333    -0.02500
C1275       C  0.27807558  0.91335104  0.80513978    -0.16000
C1276       C  0.28751821  0.90445980  0.80809783    -0.14000
H1277       H  0.29964272  0.88186488  0.81512501     0.21400
H1278       H  0.25203082  0.88043907  0.80956008     0.17500
H1279       H  0.25426267  0.85529916  0.81738590     0.20000
H1280       H  0.29749336  0.90688574  0.80971508     0.13300
C1281       C  0.24158257  0.60526300  0.81728707     0.17200
C1282       C  0.23582482  0.59315219  0.81573372    -0.31800
C1283       C  0.24324226  0.58327540  0.81028912     0.21600
C1284       C  0.25578512  0.58537071  0.80636975     0.03800
C1285       C  0.26159767  0.59745511  0.80807706    -0.21600
C1286       C  0.25424080  0.60729345  0.81371436     0.13000
S1287       S  0.23409149  0.61861004  0.82330432    -0.05200
C1288       C  0.24823390  0.62701052  0.82124828    -0.08700
C1289       C  0.25815356  0.61969853  0.81612420    -0.25300
S1290       S  0.26318938  0.57199513  0.80020120    -0.02500
C1291       C  0.24933609  0.56343054  0.80320937    -0.16000
C1292       C  0.23954908  0.57071776  0.80858854    -0.14000
H1293       H  0.22599637  0.59148087  0.81869232     0.21400
H1294       H  0.27145917  0.59909507  0.80522127     0.17500
H1295       H  0.26759849  0.62339946  0.81382618     0.20000
H1296       H  0.23035019  0.56687344  0.81156881     0.13300
C1297       C  0.26548854  0.66747758  0.76417328     0.17200
C1298       C  0.27241486  0.66808453  0.75261541    -0.31800
C1299       C  0.26554809  0.66676016  0.74111787     0.21600
C1300       C  0.25237301  0.66488942  0.74115166     0.03800
C1301       C  0.24545176  0.66427456  0.75270444    -0.21600
C1302       C  0.25230767  0.66565026  0.76419552     0.13000
S1303       S  0.27205789  0.66880092  0.77910667    -0.05200
C1304       C  0.25688815  0.66692459  0.78548545    -0.08700
C1305       C  0.24729550  0.66537737  0.77640634    -0.25300
S1306       S  0.24576871  0.66364273  0.72623742    -0.02500
C1307       C  0.26089870  0.66570506  0.71982678    -0.16000
C1308       C  0.27051995  0.66720195  0.72888964    -0.14000
H1309       H  0.28270146  0.66954924  0.75258960     0.21400
H1310       H  0.23516113  0.66283546  0.75272895     0.17500
H1311       H  0.23723057  0.66400124  0.77861827     0.20000
H1312       H  0.28056852  0.66865994  0.72665802     0.13300
C1313       C  0.25034623  0.72874812  0.82763381     0.17200
C1314       C  0.24633853  0.74162575  0.82783436    -0.31800
C1315       C  0.25585441  0.75117765  0.82840878     0.21600
C1316       C  0.26876573  0.74802226  0.82886351     0.03800
C1317       C  0.27275190  0.73516419  0.82888069    -0.21600
C1318       C  0.26326074  0.72563367  0.82819010     0.13000
S1319       S  0.24038518  0.71575515  0.82633437    -0.05200
C1320       C  0.25377357  0.70602842  0.82647067    -0.08700
C1321       C  0.26528221  0.71262310  0.82762336    -0.25300
S1322       S  0.27886107  0.76093680  0.82894324    -0.02500
C1323       C  0.26558185  0.77076825  0.82839046    -0.16000
C1324       C  0.25395308  0.76424689  0.82823471    -0.14000
H1325       H  0.23626506  0.74409396  0.82732309     0.21400
H1326       H  0.28283643  0.73270018  0.82916174     0.17500
H1327       H  0.27465203  0.70814911  0.82784167     0.20000
H1328       H  0.24463759  0.76880918  0.82773840     0.13300
C1329       C  0.25899112  0.87323821  0.68497175     0.17200
C1330       C  0.26294577  0.88610126  0.68373981    -0.31800
C1331       C  0.25698463  0.89532632  0.69160705     0.21600
C1332       C  0.24765929  0.89188863  0.70047872     0.03800
C1333       C  0.24360848  0.87904302  0.70161360    -0.21600
C1334       C  0.24938645  0.86985432  0.69356588     0.13000
S1335       S  0.26523546  0.86054203  0.67655706    -0.05200
C1336       C  0.25455887  0.85058947  0.68443789    -0.08700
C1337       C  0.24668461  0.85691550  0.69316815    -0.25300
S1338       S  0.24142248  0.90458564  0.70890812    -0.02500
C1339       C  0.25126697  0.91470957  0.70019618    -0.16000
C1340       C  0.25902742  0.90838162  0.69135391    -0.14000
H1341       H  0.27028721  0.88881834  0.67687740     0.21400
H1342       H  0.23616875  0.87634802  0.70837654     0.17500
H1343       H  0.23964938  0.85221007  0.69923629     0.20000
H1344       H  0.26550443  0.91315967  0.68474377     0.13300
C1345       C  0.25514335  0.80979661  0.76619530     0.17200
C1346       C  0.24865535  0.81008330  0.75443901    -0.31800
C1347       C  0.25607485  0.81105789  0.74322688     0.21600
C1348       C  0.26935322  0.81171554  0.74364787     0.03800
C1349       C  0.27584160  0.81136727  0.75539960    -0.21600
C1350       C  0.26842683  0.81037719  0.76660624     0.13000
S1351       S  0.24792173  0.80896666  0.78092291    -0.05200
C1352       C  0.26298731  0.80940353  0.78767005    -0.08700
C1353       C  0.27297705  0.81006464  0.77889698    -0.25300
S1354       S  0.27657947  0.81274657  0.72893293    -0.02500
C1355       C  0.26153672  0.81215789  0.72214560    -0.16000
C1356       C  0.25154195  0.81134675  0.73092144    -0.14000
H1357       H  0.23828535  0.80960266  0.75404353     0.21400
H1358       H  0.28621095  0.81185717  0.75579772     0.17500
H1359       H  0.28304768  0.81053762  0.78139187     0.20000
H1360       H  0.24147706  0.81079483  0.72842038     0.13300
C1361       C  0.25175714  0.74876816  0.68350626     0.17200
C1362       C  0.24707482  0.73614496  0.68274213    -0.31800
C1363       C  0.25606304  0.72612525  0.68250453     0.21600
C1364       C  0.26912813  0.72857415  0.68311517     0.03800
C1365       C  0.27381030  0.74118927  0.68385686    -0.21600
C1366       C  0.26482822  0.75120825  0.68397605     0.13000
S1367       S  0.24243456  0.76224258  0.68372805    -0.05200
C1368       C  0.25628642  0.77129394  0.68428782    -0.08700
C1369       C  0.26749500  0.76412080  0.68439552    -0.25300
S1370       S  0.27847256  0.71514276  0.68278702    -0.02500
C1371       C  0.26465336  0.70608631  0.68169099    -0.16000
C1372       C  0.25342436  0.71321852  0.68165798    -0.14000
H1373       H  0.23687449  0.73422422  0.68227973     0.21400
H1374       H  0.28401449  0.74311225  0.68424867     0.17500
H1375       H  0.27708065  0.76813714  0.68466850     0.20000
H1376       H  0.24386062  0.70918529  0.68109531     0.13300
C1377       C  0.26241533  0.74333571  0.44060600     0.17200
C1378       C  0.25280475  0.75229874  0.43768759    -0.31800
C1379       C  0.24044066  0.74995489  0.44251895     0.21600
C1380       C  0.23774422  0.73905181  0.44974248     0.03800
C1381       C  0.24725346  0.72991553  0.45229548    -0.21600
C1382       C  0.25964514  0.73237505  0.44766971     0.13000
S1383       S  0.27828174  0.74513576  0.43696294    -0.05200
C1384       C  0.28124516  0.73095313  0.44507015    -0.08700
C1385       C  0.27034510  0.72514715  0.45009621    -0.25300
S1386       S  0.22256766  0.73850954  0.45585833    -0.02500
C1387       C  0.21983037  0.75311002  0.44862066    -0.16000
C1388       C  0.23007281  0.75802953  0.44168906    -0.14000
H1389       H  0.25499144  0.76098205  0.43236830     0.21400
H1390       H  0.24521255  0.72153258  0.45813210     0.17500
H1391       H  0.27020081  0.71629006  0.45551865     0.20000
H1392       H  0.23010831  0.76728348  0.43692559     0.13300
C1393       C  0.27985715  0.71179624  0.51305573     0.17200
C1394       C  0.28268563  0.72122114  0.50375483    -0.31800
C1395       C  0.28467828  0.71714363  0.49100617     0.21600
C1396       C  0.28357365  0.70429925  0.48764261     0.03800
C1397       C  0.28044138  0.69496367  0.49685075    -0.21600
C1398       C  0.27878608  0.69898982  0.50960548     0.13000
S1399       S  0.27900147  0.71437963  0.52931622    -0.05200
C1400       C  0.27749533  0.69798212  0.53149087    -0.08700
C1401       C  0.27728334  0.69110582  0.52005794    -0.25300
S1402       S  0.28779535  0.70100416  0.47212927    -0.02500
C1403       C  0.29102945  0.71709531  0.47002610    -0.16000
C1404       C  0.28894307  0.72455700  0.48088206    -0.14000
H1405       H  0.28397008  0.73118268  0.50645740     0.21400
H1406       H  0.28003079  0.68488199  0.49431239     0.17500
H1407       H  0.27695497  0.68072178  0.51945652     0.20000
H1408       H  0.29125303  0.73468009  0.48156064     0.13300
C1409       C  0.28441101  0.68335459  0.60088130     0.17200
C1410       C  0.28867772  0.68007888  0.61325870    -0.31800
C1411       C  0.27943184  0.67630067  0.62235558     0.21600
C1412       C  0.26652231  0.67580145  0.61922685     0.03800
C1413       C  0.26225192  0.67917491  0.60688810    -0.21600
C1414       C  0.27147898  0.68300826  0.59781194     0.13000
S1415       S  0.29418047  0.68705729  0.58821480    -0.05200
C1416       C  0.28072106  0.68825960  0.57867851    -0.08700
C1417       C  0.26928606  0.68598143  0.58511496    -0.25300
S1418       S  0.25679027  0.67115516  0.63160662    -0.02500
C1419       C  0.27019388  0.67003208  0.64124570    -0.16000
C1420       C  0.28161613  0.67295936  0.63497148    -0.14000
H1421       H  0.29878107  0.68030661  0.61564174     0.21400
H1422       H  0.25217094  0.67873827  0.60444269     0.17500
H1423       H  0.25998653  0.68550945  0.58052368     0.20000
H1424       H  0.29095742  0.67306117  0.63949815     0.13300
C1425       C  0.22434841  0.76712571  0.49305618     0.17200
C1426       C  0.23352451  0.77103793  0.50215491    -0.31800
C1427       C  0.22972058  0.77159595  0.51513438     0.21600
C1428       C  0.21743328  0.76808321  0.51888161     0.03800
C1429       C  0.20836039  0.76399939  0.50983756    -0.21600
C1430       C  0.21204100  0.76379434  0.49687056     0.13000
S1431       S  0.22648771  0.76725589  0.47671932    -0.05200
C1432       C  0.21054249  0.76307799  0.47502894    -0.08700
C1433       C  0.20412802  0.76146557  0.48661802    -0.25300
S1434       S  0.21417524  0.77067530  0.53474699    -0.02500
C1435       C  0.22951404  0.77654827  0.53648705    -0.16000
C1436       C  0.23671209  0.77649171  0.52523559    -0.14000
H1437       H  0.24300802  0.77410078  0.49917769     0.21400
H1438       H  0.19863081  0.76171224  0.51271661     0.17500
H1439       H  0.19398809  0.75934415  0.48748371     0.20000
H1440       H  0.24620424  0.78063593  0.52431722     0.13300
C1441       C  0.25796876  0.74983932  0.56488847     0.17200
C1442       C  0.26771656  0.74085244  0.56713343    -0.31800
C1443       C  0.26533129  0.72802992  0.56375896     0.21600
C1444       C  0.25364708  0.72427115  0.55859767     0.03800
C1445       C  0.24375385  0.73320728  0.55672736    -0.21600
C1446       C  0.24625370  0.74608798  0.55983985     0.13000
S1447       S  0.25951141  0.76600699  0.56705795    -0.05200
C1448       C  0.24420937  0.76779803  0.56112749    -0.08700
C1449       C  0.23827288  0.75635524  0.55772497    -0.25300
S1450       S  0.25313337  0.70858392  0.55378506    -0.02500
C1451       C  0.26880894  0.70715190  0.55873270    -0.16000
C1452       C  0.27403419  0.71815271  0.56404610    -0.14000
H1453       H  0.27696048  0.74382549  0.57081709     0.21400
H1454       H  0.23472440  0.73035245  0.55246592     0.17500
H1455       H  0.22874860  0.75558224  0.55371320     0.20000
H1456       H  0.28389500  0.71905839  0.56716050     0.13300
C1457       C  0.25159018  0.79504597  0.60120888     0.17200
C1458       C  0.25892959  0.79801747  0.61213687    -0.31800
C1459       C  0.25234479  0.80077587  0.62362175     0.21600
C1460       C  0.23905911  0.80051555  0.62418269     0.03800
C1461       C  0.23175090  0.79741769  0.61332056    -0.21600
C1462       C  0.23831688  0.79469908  0.60186352     0.13000
S1463       S  0.25760616  0.79242389  0.58610849    -0.05200
C1464       C  0.24208872  0.79049500  0.58070537    -0.08700
C1465       C  0.23284672  0.79210691  0.59016918    -0.25300
S1466       S  0.23283055  0.80424272  0.63889629    -0.02500
C1467       C  0.24827107  0.80621355  0.64447230    -0.16000
C1468       C  0.25770129  0.80401548  0.63526213    -0.14000
H1469       H  0.26930025  0.79838214  0.61165325     0.21400
H1470       H  0.22137061  0.79729492  0.61374092     0.17500
H1471       H  0.22260775  0.79198780  0.58842640     0.20000
H1472       H  0.26791849  0.80458863  0.63702666     0.13300
C1473       C  0.32087832  0.74572793  0.38685927     0.17200
C1474       C  0.32217394  0.74748411  0.40014711    -0.31800
C1475       C  0.31374757  0.74074223  0.40826910     0.21600
C1476       C  0.30417968  0.73287335  0.40341511     0.03800
C1477       C  0.30286516  0.73111707  0.39010459    -0.21600
C1478       C  0.31157780  0.73754368  0.38199415     0.13000
S1479       S  0.33052822  0.75263258  0.37542706    -0.05200
C1480       C  0.32233320  0.74395907  0.36402472    -0.08700
C1481       C  0.31243608  0.73642485  0.36888583    -0.25300
S1482       S  0.29532923  0.72512099  0.41496136    -0.02500
C1483       C  0.30479089  0.73238498  0.42643269    -0.16000
C1484       C  0.31418162  0.74043160  0.42142838    -0.14000
H1485       H  0.32966283  0.75356725  0.40400676     0.21400
H1486       H  0.29564318  0.72470675  0.38626035     0.17500
H1487       H  0.30621387  0.73043117  0.36310499     0.20000
H1488       H  0.32128825  0.74541687  0.42713749     0.13300
C1489       C  0.18840321  0.76472015  0.38489196     0.17200
C1490       C  0.18918475  0.77177992  0.39632856    -0.31800
C1491       C  0.19418787  0.76559841  0.40720367     0.21600
C1492       C  0.19846251  0.75300605  0.40671833     0.03800
C1493       C  0.19765768  0.74591374  0.39524769    -0.21600
C1494       C  0.19241015  0.75203223  0.38439352     0.13000
S1495       S  0.18269936  0.77056946  0.37066788    -0.05200
C1496       C  0.18551452  0.75571739  0.36391335    -0.08700
C1497       C  0.19065948  0.74676522  0.37238866    -0.25300
S1498       S  0.20378375  0.74719225  0.42118605    -0.02500
C1499       C  0.19990803  0.76179427  0.42799082    -0.16000
C1500       C  0.19497852  0.77065044  0.41933078    -0.14000
H1501       H  0.18587830  0.78163001  0.39677411     0.21400
H1502       H  0.20079814  0.73601040  0.39485173     0.17500
H1503       H  0.19332744  0.73705204  0.36980731     0.20000
H1504       H  0.19167221  0.78017191  0.42189785     0.13300
C1505       C  0.24413282  0.74015511  0.32366026     0.17200
C1506       C  0.25618944  0.73418595  0.32312144    -0.31800
C1507       C  0.26712007  0.74206407  0.32369118     0.21600
C1508       C  0.26608510  0.75529917  0.32478173     0.03800
C1509       C  0.25402244  0.76127168  0.32529820    -0.21600
C1510       C  0.24308998  0.75339791  0.32467631     0.13000
S1511       S  0.22975753  0.73228062  0.32319718    -0.05200
C1512       C  0.22220702  0.74697843  0.32430565    -0.08700
C1513       C  0.23052344  0.75738440  0.32499655    -0.25300
S1514       S  0.28048635  0.76314665  0.32539149    -0.02500
C1515       C  0.28803814  0.74845671  0.32412321    -0.16000
C1516       C  0.27968351  0.73807695  0.32331062    -0.14000
H1517       H  0.25701212  0.72384785  0.32230256     0.21400
H1518       H  0.25319720  0.77160714  0.32614091     0.17500
H1519       H  0.22754158  0.76731640  0.32577937     0.20000
H1520       H  0.28263897  0.72813805  0.32251462     0.13300
C1521       C  0.32855549  0.75417042  0.24210557     0.17200
C1522       C  0.32769799  0.76002146  0.25421252    -0.31800
C1523       C  0.32943938  0.75218034  0.26504137     0.21600
C1524       C  0.33208070  0.73917100  0.26380850     0.03800
C1525       C  0.33312969  0.73339830  0.25175577    -0.21600
C1526       C  0.33118797  0.74115668  0.24098424     0.13000
S1527       S  0.32625125  0.76178550  0.22776937    -0.05200
C1528       C  0.32873113  0.74721972  0.22028408    -0.08700
C1529       C  0.33131008  0.73711676  0.22851030    -0.25300
S1530       S  0.33324087  0.73107949  0.27791927    -0.02500
C1531       C  0.33003897  0.74531309  0.28566776    -0.16000
C1532       C  0.32837570  0.75582793  0.27766274    -0.14000
H1533       H  0.32550825  0.77014573  0.25515039     0.21400
H1534       H  0.33506875  0.72321958  0.25082322     0.17500
H1535       H  0.33315106  0.72732186  0.22552829     0.20000
H1536       H  0.32613940  0.76546349  0.28087332     0.13300
C1537       C  0.18190637  0.73667868  0.26385622     0.17200
C1538       C  0.18179810  0.73022039  0.25204337    -0.31800
C1539       C  0.18281198  0.73763519  0.24081379     0.21600
C1540       C  0.18380513  0.75091240  0.24128301     0.03800
C1541       C  0.18395213  0.75738171  0.25311313    -0.21600
C1542       C  0.18300480  0.74994742  0.26435739     0.13000
S1543       S  0.18091566  0.72939035  0.27855401    -0.05200
C1544       C  0.18211916  0.74435875  0.28550629    -0.08700
C1545       C  0.18311969  0.75441326  0.27675976    -0.25300
S1546       S  0.18476555  0.75812337  0.22652005    -0.02500
C1547       C  0.18389607  0.74307406  0.21964419    -0.16000
C1548       C  0.18292602  0.73308956  0.22845246    -0.14000
H1549       H  0.18099426  0.71985338  0.25162247     0.21400
H1550       H  0.18478974  0.76774604  0.25353705     0.17500
H1551       H  0.18398781  0.76445596  0.27933921     0.20000
H1552       H  0.18224528  0.72301562  0.22593975     0.13300
C1553       C  0.24577270  0.74722751  0.17901951     0.17200
C1554       C  0.25778115  0.75328578  0.17917156    -0.31800
C1555       C  0.26869811  0.74544013  0.17937573     0.21600
C1556       C  0.26773060  0.73214890  0.17926611     0.03800
C1557       C  0.25571094  0.72608520  0.17895946    -0.21600
C1558       C  0.24477808  0.73393509  0.17894999     0.13000
S1559       S  0.23141117  0.75505266  0.17932354    -0.05200
C1560       C  0.22394871  0.74026494  0.17960231    -0.08700
C1561       C  0.23225504  0.72987211  0.17923746    -0.25300
S1562       S  0.28213796  0.72436680  0.17981251    -0.02500
C1563       C  0.28954402  0.73918524  0.18018408    -0.16000
C1564       C  0.28118336  0.74953369  0.17987846    -0.14000
H1565       H  0.25857664  0.76366082  0.17933821     0.21400
H1566       H  0.25491247  0.71570960  0.17896549     0.17500
H1567       H  0.22929800  0.71989212  0.17932606     0.20000
H1568       H  0.28408213  0.75952942  0.18007668     0.13300
C1569       C  0.19427358  0.72138156  0.12110530     0.17200
C1570       C  0.19618280  0.71430277  0.10981846    -0.31800
C1571       C  0.20223928  0.72046564  0.09945008     0.21600
C1572       C  0.20648260  0.73306043  0.10028942     0.03800
C1573       C  0.20458332  0.74016957  0.11163436    -0.21600
C1574       C  0.19823795  0.73407277  0.12194832     0.13000
S1575       S  0.18710964  0.71556093  0.13471195    -0.05200
C1576       C  0.18916467  0.73045586  0.14163011    -0.08700
C1577       C  0.19522530  0.73937371  0.13368953    -0.25300
S1578       S  0.21293771  0.73890811  0.08624531    -0.02500
C1579       C  0.20956329  0.72431653  0.07914626    -0.16000
C1580       C  0.20398716  0.71544344  0.08741541    -0.14000
H1581       H  0.19286872  0.70446574  0.10906479     0.21400
H1582       H  0.20764895  0.75009128  0.11229302     0.17500
H1583       H  0.19767504  0.74908275  0.13651130     0.20000
H1584       H  0.20067887  0.70600767  0.08453269     0.13300
C1585       C  0.27203176  0.74731027  0.05419329     0.17200
C1586       C  0.25917604  0.74869310  0.05051791    -0.31800
C1587       C  0.25016995  0.74022622  0.05592570     0.21600
C1588       C  0.25372176  0.73104708  0.06491418     0.03800
C1589       C  0.26656470  0.72977337  0.06869168    -0.21600
C1590       C  0.27563048  0.73798192  0.06297465     0.13000
S1591       S  0.28455444  0.75568067  0.04769457    -0.05200
C1592       C  0.29488565  0.74626445  0.05659371    -0.08700
C1593       C  0.28868606  0.73735669  0.06441842    -0.25300
S1594       S  0.24150228  0.72116947  0.06975265    -0.02500
C1595       C  0.23163451  0.72925216  0.05926171    -0.16000
C1596       C  0.23747230  0.73925450  0.05265971    -0.14000
H1597       H  0.25640346  0.75568517  0.04333279     0.21400
H1598       H  0.26944521  0.72234417  0.07537795     0.17500
H1599       H  0.29346968  0.73020144  0.07023183     0.20000
H1600       H  0.23278692  0.74510843  0.04546338     0.13300
C1601       C  0.31589697  0.74688312  0.09933147     0.17200
C1602       C  0.31570997  0.75240199  0.11160299    -0.31800
C1603       C  0.32100187  0.74529239  0.12174264     0.21600
C1604       C  0.32596278  0.73308397  0.11985401     0.03800
C1605       C  0.32621864  0.72758691  0.10755692    -0.21600
C1606       C  0.32121930  0.73483833  0.09734906     0.13000
S1607       S  0.31073802  0.75432440  0.08565489    -0.05200
C1608       C  0.31615326  0.74124683  0.07712433    -0.08700
C1609       C  0.32147092  0.73159281  0.08458778    -0.25300
S1610       S  0.33159005  0.72592054  0.13352442    -0.02500
C1611       C  0.32750296  0.73966112  0.14179893    -0.16000
C1612       C  0.32197926  0.74916113  0.13427397    -0.14000
H1613       H  0.31183990  0.76192989  0.11313769     0.21400
H1614       H  0.33033851  0.71817333  0.10597700     0.17500
H1615       H  0.32580748  0.72293472  0.08080136     0.20000
H1616       H  0.31859238  0.75832301  0.13784474     0.13300
C1617       C  0.22748860  0.71510346  0.98841310     0.17200
C1618       C  0.21880901  0.72003336  0.99744014    -0.31800
C1619       C  0.22247005  0.71999097  0.01040074     0.21600
C1620       C  0.23430376  0.71536708  0.01426422     0.03800
C1621       C  0.24307064  0.71052094  0.00519058    -0.21600
C1622       C  0.23935589  0.71046123  0.99219086     0.13000
S1623       S  0.22423987  0.71313257  0.97246341    -0.05200
C1624       C  0.23915331  0.70625301  0.97069096    -0.08700
C1625       C  0.24607530  0.70530314  0.98203866    -0.25300
S1626       S  0.23639144  0.71528435  0.03061113    -0.02500
C1627       C  0.22110344  0.72146977  0.03223704    -0.16000
C1628       C  0.21493561  0.72352002  0.02060225    -0.14000
H1629       H  0.20941080  0.72335366  0.99453502     0.21400
H1630       H  0.25220509  0.70659452  0.00817274     0.17500
H1631       H  0.25520479  0.70043599  0.98292277     0.20000
H1632       H  0.20515221  0.72687772  0.01967691     0.13300
C1633       C  0.25583682  0.68428711  0.90524361     0.17200
C1634       C  0.26139182  0.67876803  0.89425848    -0.31800
C1635       C  0.25342340  0.67654028  0.88361830     0.21600
C1636       C  0.24052467  0.67974166  0.88387040     0.03800
C1637       C  0.23502517  0.68544761  0.89476933    -0.21600
C1638       C  0.24297303  0.68763323  0.90541744     0.13000
S1639       S  0.26345718  0.68639577  0.91962747    -0.05200
C1640       C  0.24923371  0.69208922  0.92587542    -0.08700
C1641       C  0.23917432  0.69219818  0.91718720    -0.25300
S1642       S  0.23249565  0.67630859  0.86999080    -0.02500
C1643       C  0.24668450  0.67059594  0.86366531    -0.16000
C1644       C  0.25701396  0.67128658  0.87205756    -0.14000
H1645       H  0.27141839  0.67606493  0.89411130     0.21400
H1646       H  0.22493263  0.68788853  0.89501503     0.17500
H1647       H  0.22935373  0.69453244  0.91966226     0.20000
H1648       H  0.26674032  0.66851406  0.86967305     0.13300
C1649       C  0.29774344  0.76556649  0.99073972     0.17200
C1650       C  0.29869124  0.75529080  0.99941923    -0.31800
C1651       C  0.30286189  0.75803429  0.01193148     0.21600
C1652       C  0.30572986  0.77049792  0.01570055     0.03800
C1653       C  0.30446987  0.78079854  0.00711679    -0.21600
C1654       C  0.30050283  0.77801039  0.99455878     0.13000
S1655       S  0.29445724  0.76406361  0.97473914    -0.05200
C1656       C  0.29672864  0.78042075  0.97312535    -0.08700
C1657       C  0.29979693  0.78655256  0.98457270    -0.25300
S1658       S  0.31160843  0.77173880  0.03093722    -0.02500
C1659       C  0.31008300  0.75533045  0.03226891    -0.16000
C1660       C  0.30534592  0.74925148  0.02145180    -0.14000
H1661       H  0.29678252  0.74552155  0.99640178     0.21400
H1662       H  0.30696655  0.79049260  0.00995311     0.17500
H1663       H  0.30203335  0.79667790  0.98544691     0.20000
H1664       H  0.30419181  0.73895622  0.02048696     0.13300
C1665       C  0.26675747  0.75748246  0.94938234     0.17200
C1666       C  0.25680897  0.74906780  0.95286264    -0.31800
C1667       C  0.25698174  0.73662717  0.94765980     0.21600
C1668       C  0.26641657  0.73285098  0.93908233     0.03800
C1669       C  0.27618676  0.74136442  0.93532739    -0.21600
C1670       C  0.27624037  0.75368009  0.94082042     0.13000
S1671       S  0.26911375  0.77237970  0.95587612    -0.05200
C1672       C  0.28322062  0.77330442  0.94726091    -0.08700
C1673       C  0.28565261  0.76282450  0.93943060    -0.25300
S1674       S  0.26552746  0.71706738  0.93472796    -0.02500
C1675       C  0.25240436  0.71537068  0.94476108    -0.16000
C1676       C  0.24884749  0.72672720  0.95082757    -0.14000
H1677       H  0.24960164  0.75188584  0.95981272     0.21400
H1678       H  0.28376240  0.73831540  0.92888759     0.17500
H1679       H  0.29423372  0.76165201  0.93367503     0.20000
H1680       H  0.24096529  0.72778806  0.95744749     0.13300
C1681       C  0.29567261  0.79563223  0.90365762     0.17200
C1682       C  0.29826792  0.79902342  0.89088453    -0.31800
C1683       C  0.28783430  0.80206195  0.88298509     0.21600
C1684       C  0.27533967  0.80165629  0.88754866     0.03800
C1685       C  0.27272649  0.79810464  0.90031981    -0.21600
C1686       C  0.28318764  0.79511466  0.90826694     0.13000
S1687       S  0.30710656  0.79280624  0.91496886    -0.05200
C1688       C  0.29499813  0.79092477  0.92610927    -0.08700
C1689       C  0.28272668  0.79222808  0.92116313    -0.25300
S1690       S  0.26404461  0.80561621  0.87632372    -0.02500
C1691       C  0.27629195  0.80776950  0.86535276    -0.16000
C1692       C  0.28844564  0.80556741  0.87030020    -0.14000
H1693       H  0.30802628  0.79950491  0.88732051     0.21400
H1694       H  0.26298656  0.79785286  0.90394613     0.17500
H1695       H  0.27402632  0.79201912  0.92686198     0.20000
H1696       H  0.29726292  0.80614222  0.86480358     0.13300
C1697       C  0.10265972  0.75735311  0.30482797     0.17200
C1698       C  0.11565355  0.76062563  0.30328782    -0.31800
C1699       C  0.12449102  0.75547208  0.31207897     0.21600
C1700       C  0.12064226  0.74706147  0.32168697     0.03800
C1701       C  0.10766014  0.74382228  0.32324530    -0.21600
C1702       C  0.09878166  0.74930388  0.31472324     0.13000
S1703       S  0.09028447  0.76348235  0.29593140    -0.05200
C1704       C  0.07976070  0.75544172  0.30589937    -0.08700
C1705       C  0.08567978  0.74822787  0.31540797    -0.25300
S1706       S  0.13289639  0.74150077  0.33108564    -0.02500
C1707       C  0.14327260  0.75096978  0.32229126    -0.16000
C1708       C  0.13745019  0.75787667  0.31248806    -0.14000
H1709       H  0.11869639  0.76717741  0.29578467     0.21400
H1710       H  0.10457591  0.73752982  0.33095149     0.17500
H1711       H  0.08060843  0.74302247  0.32287259     0.20000
H1712       H  0.14250509  0.76404821  0.30578743     0.13300
C1713       C  0.06670315  0.74345046  0.24130089     0.17200
C1714       C  0.06923433  0.75242370  0.25102099    -0.31800
C1715       C  0.06484258  0.74957467  0.26345036     0.21600
C1716       C  0.05841210  0.73818230  0.26611692     0.03800
C1717       C  0.05607107  0.72913514  0.25644236    -0.21600
C1718       C  0.06024435  0.73209546  0.24397700     0.13000
S1719       S  0.07010734  0.74567866  0.22541372    -0.05200
C1720       C  0.06249166  0.73128692  0.22229985    -0.08700
C1721       C  0.05791068  0.72501268  0.23313000    -0.25300
S1722       S  0.05309983  0.73682735  0.28156852    -0.02500
C1723       C  0.05957273  0.75175930  0.28442676    -0.16000
C1724       C  0.06558274  0.75743639  0.27400050    -0.14000
H1725       H  0.07401432  0.76142788  0.24889848     0.21400
H1726       H  0.05080016  0.72038221  0.25845208     0.17500
H1727       H  0.05278653  0.71598496  0.23307873     0.20000
H1728       H  0.06975065  0.76696988  0.27402822     0.13300
C1729       C  0.12243232  0.73879599  0.18312315     0.17200
C1730       C  0.10958073  0.74264312  0.18198303    -0.31800
C1731       C  0.10046488  0.73666633  0.18997051     0.21600
C1732       C  0.10398301  0.72741176  0.19886881     0.03800
C1733       C  0.11683070  0.72342889  0.19988415    -0.21600
C1734       C  0.12593069  0.72924738  0.19172187     0.13000
S1735       S  0.13498036  0.74521124  0.17463021    -0.05200
C1736       C  0.14506724  0.73471806  0.18248942    -0.08700
C1737       C  0.13888724  0.72672768  0.19125786    -0.25300
S1738       S  0.09137543  0.72122003  0.20751206    -0.02500
C1739       C  0.08121412  0.73093944  0.19879127    -0.16000
C1740       C  0.08744589  0.73865978  0.18983264    -0.14000
H1741       H  0.10679603  0.74995000  0.17512457     0.21400
H1742       H  0.11959773  0.71605096  0.20667096     0.17500
H1743       H  0.14369916  0.71980160  0.19733445     0.20000
H1744       H  0.08262305  0.74506735  0.18321879     0.13300
C1745       C  0.99142838  0.77298740  0.28349203     0.17200
C1746       C  0.99951378  0.76940621  0.29362368    -0.31800
C1747       C  0.01253131  0.76742639  0.29083165     0.21600
C1748       C  0.01730185  0.76882038  0.27848158     0.03800
C1749       C  0.00918534  0.77232568  0.26829576    -0.21600
C1750       C  0.99615240  0.77442645  0.27110546     0.13000
S1751       S  0.97561012  0.77684566  0.28518549    -0.05200
C1752       C  0.97523412  0.78029047  0.26900890    -0.08700
C1753       C  0.98687345  0.77867594  0.26273007    -0.25300
S1754       S  0.03352065  0.76657349  0.27730224    -0.02500
C1755       C  0.03393415  0.76376937  0.29366296    -0.16000
C1756       C  0.02196255  0.76452235  0.29952645    -0.14000
H1757       H  0.99587524  0.76853362  0.30333933     0.21400
H1758       H  0.01292345  0.77366168  0.25867232     0.17500
H1759       H  0.98858608  0.78108414  0.25274896     0.20000
H1760       H  0.02023264  0.76327004  0.30970899     0.13300
C1761       C  0.00006069  0.69812618  0.22445248     0.17200
C1762       C  0.01353173  0.69798078  0.22398317    -0.31800
C1763       C  0.01984728  0.70918462  0.21983854     0.21600
C1764       C  0.01304076  0.72013041  0.21655120     0.03800
C1765       C  0.99956343  0.72034157  0.21722595    -0.21600
C1766       C  0.99323085  0.70905653  0.22114487     0.13000
S1767       S  0.99066522  0.68511809  0.22792658    -0.05200
C1768       C  0.97731865  0.69444353  0.22495779    -0.08700
C1769       C  0.98016366  0.70702195  0.22145200    -0.25300
S1770       S  0.02234713  0.73218426  0.21033443    -0.02500
C1771       C  0.03558715  0.72242238  0.21212376    -0.16000
C1772       C  0.03276397  0.71044855  0.21733313    -0.14000
H1773       H  0.01883307  0.68932312  0.22620810     0.21400
H1774       H  0.99422498  0.72875621  0.21427834     0.17500
H1775       H  0.97309768  0.71411043  0.21867759     0.20000
H1776       H  0.03961762  0.70268799  0.21819415     0.13300
C1777       C  0.95535234  0.72528114  0.24723449     0.17200
C1778       C  0.95931915  0.73535996  0.25519101    -0.31800
C1779       C  0.95419345  0.74757814  0.25288405     0.21600
C1780       C  0.94541529  0.74969404  0.24316394     0.03800
C1781       C  0.94127303  0.73954500  0.23526355    -0.21600
C1782       C  0.94650862  0.72729075  0.23749523     0.13000
S1783       S  0.96127152  0.71005106  0.24802391    -0.05200
C1784       C  0.95187864  0.70629069  0.23499191    -0.08700
C1785       C  0.94435966  0.71630879  0.23045341    -0.25300
S1786       S  0.94090942  0.76540927  0.24166967    -0.02500
C1787       C  0.95098830  0.76921864  0.25430026    -0.16000
C1788       C  0.95734479  0.75861152  0.25935860    -0.14000
H1789       H  0.96634267  0.73380834  0.26264289     0.21400
H1790       H  0.93452398  0.74118873  0.22754126     0.17500
H1791       H  0.93819062  0.71572665  0.22212447     0.20000
H1792       H  0.96386244  0.75871614  0.26722357     0.13300
C1793       C  0.56698072  0.75808324  0.24912796     0.17200
C1794       C  0.56937397  0.74813839  0.25793408    -0.31800
C1795       C  0.56525662  0.73570942  0.25466332     0.21600
C1796       C  0.55925890  0.73327877  0.24301733     0.03800
C1797       C  0.55708331  0.74316614  0.23414668    -0.21600
C1798       C  0.56094558  0.75560820  0.23753393     0.13000
S1799       S  0.57011281  0.77398538  0.25176247    -0.05200
C1800       C  0.56298759  0.77733302  0.23719604    -0.08700
C1801       C  0.55872616  0.76658722  0.23060682    -0.25300
S1802       S  0.55423930  0.71779707  0.24108464    -0.02500
C1803       C  0.56010991  0.71460261  0.25617183    -0.16000
C1804       C  0.56587257  0.72491866  0.26227155    -0.14000
H1805       H  0.57383549  0.75008163  0.26711359     0.21400
H1806       H  0.55216037  0.74131826  0.22518527     0.17500
H1807       H  0.55394981  0.76676535  0.22141803     0.20000
H1808       H  0.56982716  0.72462653  0.27187303     0.13300
C1809       C  0.49205708  0.70984186  0.28106265     0.17200
C1810       C  0.50084708  0.70051432  0.27701103    -0.31800
C1811       C  0.51314599  0.70459143  0.27333501     0.21600
C1812       C  0.51662090  0.71742157  0.27351102     0.03800
C1813       C  0.50769923  0.72687531  0.27737136    -0.21600
C1814       C  0.49534524  0.72275493  0.28123400     0.13000
S1815       S  0.47713395  0.70650123  0.28701344    -0.05200
C1816       C  0.47502347  0.72267896  0.28966886    -0.08700
C1817       C  0.48554924  0.73020903  0.28620843    -0.25300
S1818       S  0.53245580  0.71999988  0.26951889    -0.02500
C1819       C  0.53438778  0.70355624  0.26768384    -0.16000
C1820       C  0.52310830  0.69672809  0.26991587    -0.14000
H1821       H  0.49833407  0.69041341  0.27712840     0.21400
H1822       H  0.51038748  0.73691975  0.27774474     0.17500
H1823       H  0.48619055  0.74047340  0.28776341     0.20000
H1824       H  0.52220064  0.68638633  0.26946850     0.13300
C1825       C  0.40759351  0.73196736  0.30539224     0.17200
C1826       C  0.39454460  0.72839358  0.30528658    -0.31800
C1827       C  0.38591294  0.73550795  0.31292375     0.21600
C1828       C  0.39003962  0.74595589  0.32005267     0.03800
C1829       C  0.40309212  0.74944725  0.32025698    -0.21600
C1830       C  0.41176367  0.74212792  0.31289787     0.13000
S1831       S  0.41970937  0.72422629  0.29729551    -0.05200
C1832       C  0.43057531  0.73457134  0.30433401    -0.08700
C1833       C  0.42490667  0.74356704  0.31243194    -0.25300
S1834       S  0.37798128  0.75370642  0.32818528    -0.02500
C1835       C  0.36725928  0.74248355  0.32236063    -0.16000
C1836       C  0.37289954  0.73338601  0.31432744    -0.14000
H1837       H  0.39128904  0.72029586  0.29963889     0.21400
H1838       H  0.40637355  0.75744936  0.32602560     0.17500
H1839       H  0.43019910  0.75056460  0.31800557     0.20000
H1840       H  0.36767104  0.72583952  0.30944966     0.13300
C1841       C  0.49464234  0.77350935  0.22246396     0.17200
C1842       C  0.50366115  0.77785323  0.23152816    -0.31800
C1843       C  0.51624659  0.78029445  0.22719950     0.21600
C1844       C  0.51970810  0.77824706  0.21449308     0.03800
C1845       C  0.51079110  0.77372234  0.20554549    -0.21600
C1846       C  0.49821549  0.77155047  0.20978842     0.13000
S1847       S  0.47853536  0.77145544  0.22523528    -0.05200
C1848       C  0.47664823  0.76818329  0.20907760    -0.08700
C1849       C  0.48801445  0.76843882  0.20215054    -0.25300
S1850       S  0.53499356  0.78278481  0.21075573    -0.02500
C1851       C  0.53694112  0.78731420  0.22650972    -0.16000
C1852       C  0.52614600  0.78558203  0.23416442    -0.14000
H1853       H  0.50086720  0.77976578  0.24136462     0.21400
H1854       H  0.51340733  0.77249472  0.19554844     0.17500
H1855       H  0.48866622  0.76717088  0.19184406     0.20000
H1856       H  0.52542716  0.78855065  0.24410493     0.13300
C1857       C  0.45304767  0.74169487  0.23647650     0.17200
C1858       C  0.45614795  0.73280941  0.24610900    -0.31800
C1859       C  0.45114549  0.73493975  0.25844418     0.21600
C1860       C  0.44319825  0.74529036  0.26101256     0.03800
C1861       C  0.43974628  0.75393268  0.25129193    -0.21600
C1862       C  0.44494511  0.75196083  0.23902442     0.13000
S1863       S  0.45945564  0.74174161  0.22136063    -0.05200
C1864       C  0.45113874  0.75572968  0.21852877    -0.08700
C1865       C  0.44365585  0.75996724  0.22865185    -0.25300
S1866       S  0.43928763  0.74701062  0.27682583    -0.02500
C1867       C  0.44857848  0.73370113  0.28011414    -0.16000
C1868       C  0.45407953  0.72812085  0.26931320    -0.14000
H1869       H  0.46268425  0.72495019  0.24422979     0.21400
H1870       H  0.43376851  0.76218382  0.25334521     0.17500
H1871       H  0.43817031  0.76879390  0.22862109     0.20000
H1872       H  0.46029086  0.71983215  0.26935054     0.13300
C1873       C  0.40713841  0.76525737  0.19646315     0.17200
C1874       C  0.39429395  0.76826834  0.19400594    -0.31800
C1875       C  0.38603012  0.75819445  0.19068327     0.21600
C1876       C  0.39026507  0.74559001  0.19006338     0.03800
C1877       C  0.40314517  0.74253206  0.19267019    -0.21600
C1878       C  0.41149574  0.75268344  0.19582971     0.13000
S1879       S  0.41880237  0.77637776  0.19927585    -0.05200
C1880       C  0.42976116  0.76404688  0.19961737    -0.08700
C1881       C  0.42453711  0.75190996  0.19777584    -0.25300
S1882       S  0.37855876  0.73481679  0.18588124    -0.02500
C1883       C  0.36793765  0.74749629  0.18481260    -0.16000
C1884       C  0.37330341  0.75935016  0.18764473    -0.14000
H1885       H  0.39095544  0.77811232  0.19433243     0.21400
H1886       H  0.40655452  0.73273088  0.19201460     0.17500
H1887       H  0.43009195  0.74316092  0.19697997     0.20000
H1888       H  0.36809156  0.76834510  0.18774409     0.13300
C1889       C  0.91069749  0.79801957  0.24621671     0.17200
C1890       C  0.89960196  0.80184702  0.23960365    -0.31800
C1891       C  0.88879480  0.80527826  0.24693008     0.21600
C1892       C  0.88904652  0.80490855  0.26024124     0.03800
C1893       C  0.90007168  0.80095291  0.26683722    -0.21600
C1894       C  0.91083690  0.79748532  0.25951828     0.13000
S1895       S  0.92518985  0.79470128  0.23921388    -0.05200
C1896       C  0.93140766  0.79223400  0.25435262    -0.08700
C1897       C  0.92263846  0.79409951  0.26420973    -0.25300
S1898       S  0.87498812  0.80932959  0.26739737    -0.02500
C1899       C  0.86855118  0.81156892  0.25230500    -0.16000
C1900       C  0.87705197  0.80911486  0.24230914    -0.14000
H1901       H  0.89946211  0.80232249  0.22921424     0.21400
H1902       H  0.90028902  0.80070532  0.27723522     0.17500
H1903       H  0.92505010  0.79390814  0.27432441     0.20000
H1904       H  0.87464979  0.80969355  0.23221091     0.13300
C1905       C  0.60368398  0.69377803  0.26401279     0.17200
C1906       C  0.61627851  0.69442288  0.26871214    -0.31800
C1907       C  0.62568957  0.68700353  0.26253266     0.21600
C1908       C  0.62279281  0.67951909  0.25191646     0.03800
C1909       C  0.61015694  0.67874798  0.24730484    -0.21600
C1910       C  0.60067864  0.68594961  0.25368312     0.13000
S1911       S  0.59074865  0.70136457  0.27072949    -0.05200
C1912       C  0.58109883  0.69371545  0.25971596    -0.08700
C1913       C  0.58772338  0.68578894  0.25126014    -0.25300
S1914       S  0.63573891  0.67169429  0.24546913    -0.02500
C1915       C  0.64505264  0.67823809  0.25747708    -0.16000
C1916       C  0.63839649  0.68616844  0.26586196    -0.14000
H1917       H  0.61860021  0.70028127  0.27697886     0.21400
H1918       H  0.60778633  0.67267284  0.23921003     0.17500
H1919       H  0.58319054  0.67967059  0.24418509     0.20000
H1920       H  0.64271788  0.69134942  0.27376847     0.13300
C1921       C  0.88704144  0.67352422  0.23006969     0.17200
C1922       C  0.89798115  0.67403403  0.22230288    -0.31800
C1923       C  0.90897437  0.67987659  0.22732692     0.21600
C1924       C  0.90917147  0.68509028  0.23956034     0.03800
C1925       C  0.89813859  0.68456966  0.24741839    -0.21600
C1926       C  0.88707852  0.67858773  0.24238659     0.13000
S1927       S  0.87273961  0.66720787  0.22533098    -0.05200
C1928       C  0.86655056  0.67129706  0.24009782    -0.08700
C1929       C  0.87529283  0.67720607  0.24829129    -0.25300
S1930       S  0.92390065  0.69116859  0.24387800    -0.02500
C1931       C  0.92977622  0.68639951  0.22909009    -0.16000
C1932       C  0.92062398  0.68066311  0.22132499    -0.14000
H1933       H  0.89794195  0.66998396  0.21272282     0.21400
H1934       H  0.89820301  0.68853609  0.25702823     0.17500
H1935       H  0.87298433  0.68083566  0.25776148     0.20000
H1936       H  0.92256937  0.67666633  0.21191714     0.13300
C1937       C  0.83054757  0.73198186  0.25635629     0.17200
C1938       C  0.83063835  0.74416152  0.26212614    -0.31800
C1939       C  0.83052500  0.75492931  0.25399410     0.21600
C1940       C  0.83050243  0.75359154  0.24073490     0.03800
C1941       C  0.83047089  0.74145563  0.23498862    -0.21600
C1942       C  0.83040868  0.73072751  0.24309488     0.13000
S1943       S  0.83028989  0.71769848  0.26445431    -0.05200
C1944       C  0.82985295  0.71001594  0.24979675    -0.08700
C1945       C  0.83000149  0.71816789  0.23927608    -0.25300
S1946       S  0.83023878  0.76769793  0.23247808    -0.02500
C1947       C  0.82998622  0.77557700  0.24701160    -0.16000
C1948       C  0.83023337  0.76758736  0.25768341    -0.14000
H1949       H  0.83063037  0.74519496  0.27247581     0.21400
H1950       H  0.83033514  0.74042184  0.22463761     0.17500
H1951       H  0.82972093  0.71507457  0.22934856     0.20000
H1952       H  0.83014386  0.77084840  0.26755824     0.13300
C1953       C  0.76604857  0.67329489  0.24702534     0.17200
C1954       C  0.75343615  0.67347354  0.24261760    -0.31800
C1955       C  0.74370555  0.67473635  0.25174431     0.21600
C1956       C  0.74631606  0.67581694  0.26475293     0.03800
C1957       C  0.75903567  0.67566163  0.26920882    -0.21600
C1958       C  0.76884555  0.67432975  0.26001016     0.13000
S1959       S  0.77902106  0.67184204  0.23727604    -0.05200
C1960       C  0.78848941  0.67258328  0.25075910    -0.08700
C1961       C  0.78182752  0.67387130  0.26224963    -0.25300
S1962       S  0.73289068  0.67708934  0.27416924    -0.02500
C1963       C  0.72382385  0.67610719  0.26034795    -0.16000
C1964       C  0.73090189  0.67492732  0.24917390    -0.14000
H1965       H  0.75129070  0.67261889  0.23247758     0.21400
H1966       H  0.76117751  0.67647256  0.27934908     0.17500
H1967       H  0.78622232  0.67454767  0.27164006     0.20000
H1968       H  0.72687985  0.67411576  0.23962223     0.13300
C1969       C  0.62317755  0.81536541  0.24454276     0.17200
C1970       C  0.61037304  0.81653649  0.24855112    -0.31800
C1971       C  0.60111618  0.80897771  0.24232051     0.21600
C1972       C  0.60444804  0.80044057  0.23266405     0.03800
C1973       C  0.61724174  0.79940937  0.22851019    -0.21600
C1974       C  0.62647649  0.80716015  0.23458998     0.13000
S1975       S  0.63587302  0.82348979  0.25108672    -0.05200
C1976       C  0.64571194  0.81606255  0.24005344    -0.08700
C1977       C  0.63937270  0.80765832  0.23185637    -0.25300
S1978       S  0.59170155  0.79226044  0.22625651    -0.02500
C1979       C  0.58176706  0.80068399  0.23647501    -0.16000
C1980       C  0.58812660  0.80923649  0.24445296    -0.14000
H1981       H  0.60772347  0.82312059  0.25615128     0.21400
H1982       H  0.61986511  0.79294283  0.22080033     0.17500
H1983       H  0.64402488  0.80196168  0.22450197     0.20000
H1984       H  0.58341764  0.81563069  0.25116780     0.13300
C1985       C  0.68660957  0.75690620  0.24061143     0.17200
C1986       C  0.68666291  0.74399481  0.23689308    -0.31800
C1987       C  0.68613232  0.73470110  0.24661379     0.21600
C1988       C  0.68572541  0.73806366  0.25949633     0.03800
C1989       C  0.68579133  0.75100111  0.26323309    -0.21600
C1990       C  0.68616886  0.76031658  0.25348194     0.13000
S1991       S  0.68672919  0.76957635  0.23021807    -0.05200
C1992       C  0.68607403  0.77962359  0.24332504    -0.08700
C1993       C  0.68590330  0.77337649  0.25510837    -0.25300
S1994       S  0.68492127  0.72528271  0.26977494    -0.02500
C1995       C  0.68504028  0.71534826  0.25653920    -0.16000
C1996       C  0.68575972  0.72169145  0.24485937    -0.14000
H1997       H  0.68692084  0.74130920  0.22684803     0.21400
H1998       H  0.68538832  0.75368621  0.27327371     0.17500
H1999       H  0.68546216  0.77812648  0.26435070     0.20000
H2000       H  0.68595320  0.71703224  0.23556241     0.13300
C2001       C  0.74712095  0.81774177  0.23306642     0.17200
C2002       C  0.75962878  0.81681881  0.22804963    -0.31800
C2003       C  0.76986955  0.81656625  0.23682045     0.21600
C2004       C  0.76767127  0.81719674  0.24995170     0.03800
C2005       C  0.75523518  0.81817774  0.25492903    -0.21600
C2006       C  0.74505004  0.81843307  0.24620964     0.13000
S2007       S  0.73334200  0.81794051  0.22418190    -0.05200
C2008       C  0.72476102  0.81893447  0.23835731    -0.08700
C2009       C  0.73228912  0.81916981  0.24929748    -0.25300
S2010       S  0.78115163  0.81669824  0.25909534    -0.02500
C2011       C  0.79002293  0.81570535  0.24515157    -0.16000
C2012       C  0.78275803  0.81572527  0.23397074    -0.14000
H2013       H  0.76129249  0.81627248  0.21779340     0.21400
H2014       H  0.75356734  0.81866991  0.26518954     0.17500
H2015       H  0.72861657  0.81967402  0.25902459     0.20000
H2016       H  0.78667037  0.81519581  0.22434169     0.13300
C2017       C  0.70079808  0.59698018  0.27751826     0.17200
C2018       C  0.69715629  0.60934869  0.28132602    -0.31800
C2019       C  0.69434443  0.61828605  0.27167639     0.21600
C2020       C  0.69533826  0.61514657  0.25877356     0.03800
C2021       C  0.69922481  0.60280584  0.25494448    -0.21600
C2022       C  0.70186238  0.59377488  0.26462706     0.13000
S2023       S  0.70297873  0.58445423  0.28780922    -0.05200
C2024       C  0.70528723  0.57469560  0.27466555    -0.08700
C2025       C  0.70464944  0.58097291  0.26292422    -0.25300
S2026       S  0.69140568  0.62741748  0.24859435    -0.02500
C2027       C  0.68837320  0.63684745  0.26188758    -0.16000
C2028       C  0.69034649  0.63068531  0.27352432    -0.14000
H2029       H  0.69616325  0.61178275  0.29139214     0.21400
H2030       H  0.69984658  0.60026487  0.24487761     0.17500
H2031       H  0.70510416  0.57623121  0.25367924     0.20000
H2032       H  0.68922133  0.63513637  0.28285837     0.13300
C2033       C  0.75812624  0.54887731  0.23532145     0.17200
C2034       C  0.74515783  0.54572424  0.23708778    -0.31800
C2035       C  0.73886135  0.55086697  0.24783040     0.21600
C2036       C  0.74507858  0.55913707  0.25621537     0.03800
C2037       C  0.75803629  0.56235393  0.25438116    -0.21600
C2038       C  0.76445595  0.55685783  0.24386837     0.13000
S2039       S  0.76772333  0.54258251  0.22365803    -0.05200
C2040       C  0.78062763  0.55033380  0.23060317    -0.08700
C2041       C  0.77734750  0.55775033  0.24121778    -0.25300
S2042       S  0.73595870  0.56384667  0.26903779    -0.02500
C2043       C  0.72382362  0.55423171  0.26325413    -0.16000
C2044       C  0.72663224  0.54801359  0.25182425    -0.14000
H2045       H  0.74033850  0.53911998  0.23066842     0.21400
H2046       H  0.76303354  0.56844886  0.26115413     0.17500
H2047       H  0.78411413  0.56284946  0.24721240     0.20000
H2048       H  0.72024229  0.54138320  0.24700630     0.13300
C2049       C  0.80454942  0.59228976  0.23145259     0.17200
C2050       C  0.80362207  0.60557985  0.22923777    -0.31800
C2051       C  0.81222162  0.61368287  0.23578018     0.21600
C2052       C  0.82114768  0.60882168  0.24435583     0.03800
C2053       C  0.82214944  0.59556112  0.24646364    -0.21600
C2054       C  0.81372779  0.58746184  0.23976590     0.13000
S2055       S  0.79553651  0.58069376  0.22399391    -0.05200
C2056       C  0.80440891  0.56925987  0.23202630    -0.08700
C2057       C  0.81372143  0.57431229  0.24007040    -0.25300
S2058       S  0.83043706  0.62024342  0.25165263    -0.02500
C2059       C  0.82249931  0.63168584  0.24277038    -0.16000
C2060       C  0.81306352  0.62680801  0.23472361    -0.14000
H2061       H  0.79664760  0.60941925  0.22257125     0.21400
H2062       H  0.82928445  0.59170358  0.25294796     0.17500
H2063       H  0.82050382  0.56860138  0.24548580     0.20000
H2064       H  0.80698672  0.63260357  0.22860287     0.13300
C2065       C  0.71865383  0.48323213  0.27602466     0.17200
C2066       C  0.70965850  0.49281848  0.27324724    -0.31800
C2067       C  0.71404219  0.50554340  0.27255768     0.21600
C2068       C  0.72686001  0.50862261  0.27427564     0.03800
C2069       C  0.73593356  0.49897887  0.27677944    -0.21600
C2070       C  0.73150360  0.48624433  0.27773322     0.13000
S2071       S  0.71490071  0.46753173  0.27898935    -0.05200
C2072       C  0.73081589  0.46492121  0.28245513    -0.08700
C2073       C  0.73855406  0.47571735  0.28139493    -0.25300
S2074       S  0.72992976  0.52479264  0.27438165    -0.02500
C2075       C  0.71374098  0.52741029  0.27219665    -0.16000
C2076       C  0.70652615  0.51623768  0.27129120    -0.14000
H2077       H  0.69956527  0.49053423  0.27230077     0.21400
H2078       H  0.74589247  0.50136370  0.27851729     0.17500
H2079       H  0.74861024  0.47600423  0.28396098     0.20000
H2080       H  0.69617098  0.51597194  0.27049232     0.13300
C2081       C  0.78274182  0.50811011  0.20548563     0.17200
C2082       C  0.77882180  0.49926477  0.19617490    -0.31800
C2083       C  0.77681544  0.48652778  0.20006745     0.21600
C2084       C  0.77837647  0.48273000  0.21271825     0.03800
C2085       C  0.78199802  0.49168341  0.22215745    -0.21600
C2086       C  0.78429158  0.50442544  0.21820086     0.13000
S2087       S  0.78719597  0.52355358  0.20223814    -0.05200
C2088       C  0.79112265  0.52518585  0.21817460    -0.08700
C2089       C  0.78912475  0.51425843  0.22557378    -0.25300
S2090       S  0.77686089  0.46648375  0.21503319    -0.02500
C2091       C  0.77425903  0.46479236  0.19872357    -0.16000
C2092       C  0.77428704  0.47639793  0.19210956    -0.14000
H2093       H  0.77798801  0.50205496  0.18618483     0.21400
H2094       H  0.78357264  0.48872134  0.23200251     0.17500
H2095       H  0.79170398  0.51337754  0.23560672     0.20000
H2096       H  0.77323318  0.47735661  0.18180922     0.13300
C2097       C  0.74398571  0.44156510  0.24709794     0.17200
C2098       C  0.74350744  0.44428634  0.23393026    -0.31800
C2099       C  0.75361135  0.43987094  0.22622693     0.21600
C2100       C  0.76361702  0.43272544  0.23132001     0.03800
C2101       C  0.76400408  0.42985408  0.24451418    -0.21600
C2102       C  0.75403856  0.43459652  0.25229808     0.13000
S2103       S  0.73326140  0.44716646  0.25811099    -0.05200
C2104       C  0.74252248  0.44036837  0.27001817    -0.08700
C2105       C  0.75322585  0.43382410  0.26546692    -0.25300
S2106       S  0.77537258  0.42898952  0.22042951    -0.02500
C2107       C  0.76682326  0.43744359  0.20908175    -0.16000
C2108       C  0.75538729  0.44257660  0.21345944    -0.14000
H2109       H  0.73584432  0.45005257  0.22994325     0.21400
H2110       H  0.77196981  0.42459855  0.24860548     0.17500
H2111       H  0.76041751  0.42937744  0.27145704     0.20000
H2112       H  0.74904298  0.44847516  0.20772763     0.13300
C2113       C  0.75721519  0.17068139  0.22154644     0.17200
C2114       C  0.75232782  0.17065711  0.23407227    -0.31800
C2115       C  0.76111369  0.17109238  0.24420764     0.21600
C2116       C  0.77422944  0.17155667  0.24202645     0.03800
C2117       C  0.77915243  0.17149386  0.22943825    -0.21600
C2118       C  0.77032247  0.17102290  0.21925095     0.13000
S2119       S  0.74800821  0.17042755  0.20806288    -0.05200
C2120       C  0.76191006  0.17067091  0.19909932    -0.08700
C2121       C  0.77310109  0.17095281  0.20631990    -0.25300
S2122       S  0.78319950  0.17227294  0.25576816    -0.02500
C2123       C  0.76909188  0.17189902  0.26447410    -0.16000
C2124       C  0.75812188  0.17123688  0.25701349    -0.14000
H2125       H  0.74208932  0.17037676  0.23584374     0.21400
H2126       H  0.78938608  0.17184846  0.22766682     0.17500
H2127       H  0.78270199  0.17124103  0.20233732     0.20000
H2128       H  0.74842444  0.17096503  0.26076276     0.13300
C2129       C  0.74048587  0.37646705  0.30004327     0.17200
C2130       C  0.73361838  0.38761639  0.29699339    -0.31800
C2131       C  0.74057427  0.39901239  0.29519259     0.21600
C2132       C  0.75380069  0.39936647  0.29649420     0.03800
C2133       C  0.76071477  0.38815093  0.29942568    -0.21600
C2134       C  0.75373607  0.37669391  0.30114596     0.13000
S2135       S  0.73371797  0.36173328  0.30249554    -0.05200
C2136       C  0.74888399  0.35564732  0.30489279    -0.08700
C2137       C  0.75863514  0.36473684  0.30391805    -0.25300
S2138       S  0.76024386  0.41444392  0.29506395    -0.02500
C2139       C  0.74499913  0.42020793  0.29229944    -0.16000
C2140       C  0.73550234  0.41090609  0.29273865    -0.14000
H2141       H  0.72326713  0.38743460  0.29615452     0.21400
H2142       H  0.77104432  0.38837743  0.30047792     0.17500
H2143       H  0.76876214  0.36265941  0.30489588     0.20000
H2144       H  0.72532788  0.41289347  0.29208913     0.13300
C2145       C  0.75404016  0.23343256  0.30364626     0.17200
C2146       C  0.74749832  0.24516358  0.30375144    -0.31800
C2147       C  0.75486907  0.25641607  0.30427866     0.21600
C2148       C  0.76816070  0.25603790  0.30469472     0.03800
C2149       C  0.77470722  0.24430407  0.30458736    -0.21600
C2150       C  0.76733208  0.23305244  0.30404480     0.13000
S2151       S  0.74684690  0.21871187  0.30309683    -0.05200
C2152       C  0.76191559  0.21198165  0.30337054    -0.08700
C2153       C  0.77191367  0.22075333  0.30388334    -0.25300
S2154       S  0.77532961  0.27076709  0.30536002    -0.02500
C2155       C  0.76024727  0.27749746  0.30508413    -0.16000
C2156       C  0.75026961  0.26871295  0.30448816    -0.14000
H2157       H  0.73712073  0.24550704  0.30345135     0.21400
H2158       H  0.78508398  0.24395754  0.30492179     0.17500
H2159       H  0.78199337  0.21826358  0.30419350     0.20000
H2160       H  0.74018501  0.27118908  0.30425792     0.13300
C2161       C  0.78094171  0.37609923  0.17293219     0.17200
C2162       C  0.78708888  0.38784426  0.17520613    -0.31800
C2163       C  0.77986697  0.39774989  0.18075052     0.21600
C2164       C  0.76708672  0.39609057  0.18404643     0.03800
C2165       C  0.76089033  0.38429152  0.18172977    -0.21600
C2166       C  0.76810591  0.37437917  0.17600460     0.13000
S2167       S  0.78821723  0.36287606  0.16653542    -0.05200
C2168       C  0.77380839  0.35485346  0.16781849    -0.08700
C2169       C  0.76390890  0.36220574  0.17295578    -0.25300
S2170       S  0.75993420  0.40971492  0.18999045    -0.02500
C2171       C  0.77427445  0.41770048  0.18772247    -0.16000
C2172       C  0.78400859  0.41003994  0.18286668    -0.14000
H2173       H  0.79706545  0.38925091  0.17263339     0.21400
H2174       H  0.75085853  0.38295775  0.18410139     0.17500
H2175       H  0.75430418  0.35867981  0.17481596     0.20000
H2176       H  0.79345661  0.41352962  0.18024953     0.13300
C2177       C  0.76050890  0.25440453  0.16093936     0.17200
C2178       C  0.75408920  0.24261901  0.16029957    -0.31800
C2179       C  0.76149496  0.23142356  0.16046684     0.21600
C2180       C  0.77476097  0.23186218  0.16125306     0.03800
C2181       C  0.78123382  0.24371790  0.16196515    -0.21600
C2182       C  0.77377228  0.25498384  0.16177334     0.13000
S2183       S  0.75307916  0.26896250  0.16071519    -0.05200
C2184       C  0.76794996  0.27608217  0.16175567    -0.08700
C2185       C  0.77813096  0.26746858  0.16227509    -0.25300
S2186       S  0.78186843  0.21702597  0.16121259    -0.02500
C2187       C  0.76675901  0.21026602  0.16017315    -0.16000
C2188       C  0.75687496  0.21912735  0.15987204    -0.14000
H2189       H  0.74372986  0.24219448  0.15965255     0.21400
H2190       H  0.79159317  0.24414236  0.16259063     0.17500
H2191       H  0.78813741  0.27018643  0.16295250     0.20000
H2192       H  0.74678934  0.21670230  0.15923749     0.13300
C2193       C  0.75200487  0.31629373  0.24429670     0.17200
C2194       C  0.74794120  0.31606432  0.23145402    -0.31800
C2195       C  0.75743798  0.31525917  0.22189783     0.21600
C2196       C  0.77035325  0.31461825  0.22500899     0.03800
C2197       C  0.77438719  0.31485018  0.23779298    -0.21600
C2198       C  0.76494508  0.31576353  0.24730487     0.13000
S2199       S  0.74212047  0.31720352  0.25739385    -0.05200
C2200       C  0.75563028  0.31698662  0.26692995    -0.08700
C2201       C  0.76707751  0.31621156  0.26023209    -0.25300
S2202       S  0.78043884  0.31380809  0.21215749    -0.02500
C2203       C  0.76716302  0.31445147  0.20239427    -0.16000
C2204       C  0.75553285  0.31515799  0.20886834    -0.14000
H2205       H  0.73785893  0.31654862  0.22902139     0.21400
H2206       H  0.78447391  0.31441749  0.24022351     0.17500
H2207       H  0.77648904  0.31584242  0.26460376     0.20000
H2208       H  0.74622840  0.31571621  0.20429715     0.13300
C2209       C  0.74489791  0.09257611  0.18173112     0.17200
C2210       C  0.74072375  0.10544598  0.18110062    -0.31800
C2211       C  0.74716615  0.11381014  0.17256838     0.21600
C2212       C  0.75732164  0.10951559  0.16510738     0.03800
C2213       C  0.76132818  0.09668384  0.16560028    -0.21600
C2214       C  0.75490344  0.08836273  0.17403687     0.13000
S2215       S  0.73830510  0.08070043  0.19114607    -0.05200
C2216       C  0.74904439  0.06999570  0.18444502    -0.08700
C2217       C  0.75725987  0.07548787  0.17550396    -0.25300
S2218       S  0.76459693  0.12116948  0.15611795    -0.02500
C2219       C  0.75384861  0.13208566  0.16230252    -0.16000
C2220       C  0.74498592  0.12677983  0.17084189    -0.14000
H2221       H  0.73286138  0.10879628  0.18702203     0.21400
H2222       H  0.76922194  0.09334088  0.15971428     0.17500
H2223       H  0.76428049  0.07018395  0.16996220     0.20000
H2224       H  0.73786358  0.13225215  0.17607748     0.13300
C2225       C  0.76104268  0.04802814  0.25223890     0.17200
C2226       C  0.75140968  0.04543478  0.24326844    -0.31800
C2227       C  0.75301264  0.05026455  0.23080275     0.21600
C2228       C  0.76364258  0.05752543  0.22741043     0.03800
C2229       C  0.77316047  0.06042849  0.23649188    -0.21600
C2230       C  0.77164520  0.05543172  0.24895160     0.13000
S2231       S  0.76136263  0.04194604  0.26745707    -0.05200
C2232       C  0.77589785  0.04949136  0.26944343    -0.08700
C2233       C  0.78020608  0.05642094  0.25890786    -0.25300
S2234       S  0.76436106  0.06128142  0.21143176    -0.02500
C2235       C  0.75027466  0.05277635  0.20927670    -0.16000
C2236       C  0.74522450  0.04773646  0.22054688    -0.14000
H2237       H  0.74326230  0.03945567  0.24575593     0.21400
H2238       H  0.78160520  0.06589658  0.23383559     0.17500
H2239       H  0.78929302  0.06144862  0.25844199     0.20000
H2240       H  0.73661602  0.04203562  0.22124917     0.13300
C2241       C  0.78363625  0.11363059  0.30078649     0.17200
C2242       C  0.79117690  0.10257259  0.30049272    -0.31800
C2243       C  0.78594905  0.09160116  0.29481938     0.21600
C2244       C  0.77378043  0.09156026  0.28948898     0.03800
C2245       C  0.76620625  0.10272902  0.28968128    -0.21600
C2246       C  0.77140672  0.11373464  0.29556497     0.13000
S2247       S  0.78847960  0.12785060  0.30720729    -0.05200
C2248       C  0.77387917  0.13415588  0.30290465    -0.08700
C2249       C  0.76567393  0.12554737  0.29684984    -0.25300
S2250       S  0.76908497  0.07685355  0.28377026    -0.02500
C2251       C  0.78361523  0.07079009  0.28888524    -0.16000
C2252       C  0.79162418  0.07982463  0.29440502    -0.14000
H2253       H  0.80067796  0.10247258  0.30468162     0.21400
H2254       H  0.75664420  0.10277891  0.28564125     0.17500
H2255       H  0.75626470  0.12793588  0.29317109     0.20000
H2256       H  0.80097023  0.07775781  0.29843023     0.13300
C2257       C  0.73050650  0.98440179  0.21486568     0.17200
C2258       C  0.74029819  0.99264673  0.21051605    -0.31800
C2259       C  0.73712047  0.00557827  0.20819382     0.21600
C2260       C  0.72480397  0.01011701  0.21035720     0.03800
C2261       C  0.71511216  0.00194576  0.21492642    -0.21600
C2262       C  0.71822328  0.98900133  0.21699898     0.13000
S2263       S  0.73193478  0.96812471  0.21679996    -0.05200
C2264       C  0.71577358  0.96748509  0.22046959    -0.08700
C2265       C  0.70979698  0.97940296  0.22026237    -0.25300
S2266       S  0.72246398  0.02568761  0.20576524    -0.02500
C2267       C  0.73829655  0.02625656  0.20104974    -0.16000
C2268       C  0.74491473  0.01481831  0.20279336    -0.14000
H2269       H  0.74982086  0.98902066  0.20849532     0.21400
H2270       H  0.70540756  0.00540566  0.21625664     0.17500
H2271       H  0.69963104  0.98089677  0.22180159     0.20000
H2272       H  0.75467990  0.01316837  0.19964224     0.13300
C2273       C  0.69957180  0.89846947  0.21998665     0.17200
C2274       C  0.69569309  0.88612063  0.21625242    -0.31800
C2275       C  0.69358110  0.87698288  0.22593065     0.21600
C2276       C  0.69541843  0.87995930  0.23877336     0.03800
C2277       C  0.69954410  0.89227390  0.24250738    -0.21600
C2278       C  0.70152426  0.90148797  0.23281111     0.13000
S2279       S  0.70111524  0.91117220  0.20976723    -0.05200
C2280       C  0.70441824  0.92075957  0.22283189    -0.08700
C2281       C  0.70449638  0.91429150  0.23450206    -0.25300
S2282       S  0.69221136  0.86751698  0.24902484    -0.02500
C2283       C  0.68842957  0.85817150  0.23586342    -0.16000
C2284       C  0.68958280  0.86452019  0.22419225    -0.14000
H2285       H  0.69404413  0.88383855  0.20624322     0.21400
H2286       H  0.70086246  0.89464749  0.25254307     0.17500
H2287       H  0.70563741  0.91888656  0.24375759     0.20000
H2288       H  0.68788685  0.86016683  0.21490418     0.13300
C2289       C  0.79429288  0.98064831  0.27116608     0.17200
C2290       C  0.79123724  0.98947920  0.28081668    -0.31800
C2291       C  0.78991625  0.00238560  0.27725211     0.21600
C2292       C  0.79140731  0.00635403  0.26461942     0.03800
C2293       C  0.79434293  0.99748528  0.25491622    -0.21600
C2294       C  0.79579992  0.98456310  0.25850590     0.13000
S2295       S  0.79749853  0.96481455  0.27380701    -0.05200
C2296       C  0.80057844  0.96333367  0.25763433    -0.08700
C2297       C  0.79949183  0.97463316  0.25068088    -0.25300
S2298       S  0.79025709  0.02259057  0.26248821    -0.02500
C2299       C  0.78781622  0.02402879  0.27881329    -0.16000
C2300       C  0.78784053  0.01245652  0.28540980    -0.14000
H2301       H  0.79034408  0.98648387  0.29074775     0.21400
H2302       H  0.79580457  0.00057461  0.24508245     0.17500
H2303       H  0.80184644  0.97562246  0.24058927     0.20000
H2304       H  0.78685241  0.01150346  0.29572768     0.13300
C2305       C  0.76787910  0.93276594  0.23776064     0.17200
C2306       C  0.75729793  0.92928165  0.23020757    -0.31800
C2307       C  0.74537353  0.93474479  0.23326166     0.21600
C2308       C  0.74401881  0.94313281  0.24353276     0.03800
C2309       C  0.75454599  0.94640097  0.25122559    -0.21600
C2310       C  0.76649938  0.94111720  0.24802085     0.13000
S2311       S  0.78333544  0.92817378  0.23490475    -0.05200
C2312       C  0.78807527  0.93769177  0.24763547    -0.08700
C2313       C  0.77798957  0.94388157  0.25378687    -0.25300
S2314       S  0.72908809  0.94967044  0.24500308    -0.02500
C2315       C  0.72469965  0.94120818  0.23149161    -0.16000
C2316       C  0.73421563  0.93346128  0.22638610    -0.14000
H2317       H  0.75840892  0.92298366  0.22200889     0.21400
H2318       H  0.75356336  0.95317733  0.25905318     0.17500
H2319       H  0.77887184  0.95026375  0.26187569     0.20000
H2320       H  0.73324748  0.92789920  0.21765909     0.13300
C2321       C  0.81053987  0.89562786  0.25175949     0.17200
C2322       C  0.80988610  0.88314269  0.25686251    -0.31800
C2323       C  0.81767952  0.87366969  0.25124033     0.21600
C2324       C  0.82547071  0.87642276  0.24077338     0.03800
C2325       C  0.82613323  0.88887120  0.23570029    -0.21600
C2326       C  0.81861815  0.89838761  0.24152034     0.13000
S2327       S  0.80272078  0.90875007  0.25782603    -0.05200
C2328       C  0.81072243  0.91804541  0.24666518    -0.08700
C2329       C  0.81876653  0.91120363  0.23858174    -0.25300
S2330       S  0.83381508  0.86356911  0.23498780    -0.02500
C2331       C  0.82703486  0.85440648  0.24700490    -0.16000
C2332       C  0.81865498  0.86104237  0.25496447    -0.14000
H2333       H  0.80380022  0.88097537  0.26502718     0.21400
H2334       H  0.83241762  0.89109677  0.22770144     0.17500
H2335       H  0.82493663  0.91550725  0.23137551     0.20000
H2336       H  0.81322913  0.85674734  0.26274976     0.13300
C2337       C  0.77093890  0.30126779  0.08137077     0.17200
C2338       C  0.76427144  0.30231607  0.09307843    -0.31800
C2339       C  0.77082891  0.30765759  0.10360491     0.21600
C2340       C  0.78352086  0.31153397  0.10257185     0.03800
C2341       C  0.79014892  0.31052309  0.09090195    -0.21600
C2342       C  0.78354221  0.30540681  0.08036118     0.13000
S2343       S  0.76452560  0.29594054  0.06717827    -0.05200
C2344       C  0.77887674  0.29968654  0.05979765    -0.08700
C2345       C  0.78812130  0.30449916  0.06806618    -0.25300
S2346       S  0.78999428  0.31722403  0.11650060    -0.02500
C2347       C  0.77541756  0.31452798  0.12385543    -0.16000
C2348       C  0.76606456  0.30950649  0.11579324    -0.14000
H2349       H  0.75436317  0.29928510  0.09389721     0.21400
H2350       H  0.80000269  0.31372673  0.09003488     0.17500
H2351       H  0.79751211  0.30783737  0.06507399     0.20000
H2352       H  0.75647786  0.30684255  0.11882244     0.13300
C2353       C  0.76823569  0.23560834  0.04371516     0.17200
C2354       C  0.77563162  0.24635535  0.04709317    -0.31800
C2355       C  0.77109585  0.25851281  0.04343140     0.21600
C2356       C  0.75961132  0.25991290  0.03685791     0.03800
C2357       C  0.75202648  0.24920650  0.03387196    -0.21600
C2358       C  0.75667263  0.23705436  0.03733696     0.13000
S2359       S  0.77268103  0.21998248  0.04603268    -0.05200
C2360       C  0.75884423  0.21535463  0.03821530    -0.08700
C2361       C  0.75115250  0.22549286  0.03435012    -0.25300
S2362       S  0.75648636  0.27523509  0.03190694    -0.02500
C2363       C  0.77077939  0.27978754  0.03879358    -0.16000
C2364       C  0.77746527  0.26997983  0.04476591    -0.14000
H2365       H  0.78478202  0.24525264  0.05186759     0.21400
H2366       H  0.74318103  0.25025136  0.02853787     0.17500
H2367       H  0.74208208  0.22458901  0.02950304     0.20000
H2368       H  0.78685561  0.27106071  0.04905303     0.13300
C2369       C  0.75232216  0.18427518  0.09942452     0.17200
C2370       C  0.74742068  0.18985590  0.08816709    -0.31800
C2371       C  0.75531078  0.19001931  0.07721256     0.21600
C2372       C  0.76755714  0.18484537  0.07746059     0.03800
C2373       C  0.77257040  0.17952431  0.08881084    -0.21600
C2374       C  0.76465343  0.17932469  0.09976498     0.13000
S2375       S  0.74413335  0.18287911  0.11360146    -0.05200
C2376       C  0.75749927  0.17569210  0.12020898    -0.08700
C2377       C  0.76770735  0.17444061  0.11168076    -0.25300
S2378       S  0.77500518  0.18459844  0.06280012    -0.02500
C2379       C  0.76155136  0.19167162  0.05629435    -0.16000
C2380       C  0.75189781  0.19413621  0.06513162    -0.14000
H2381       H  0.73776091  0.19365678  0.08788355     0.21400
H2382       H  0.78210358  0.17541030  0.08900249     0.17500
H2383       H  0.77694417  0.17037995  0.11412504     0.20000
H2384       H  0.74250046  0.19778487  0.06264621     0.13300
C2385       C  0.77979001  0.28786584  0.98971761     0.17200
C2386       C  0.78134769  0.28835811  0.97633931    -0.31800
C2387       C  0.78766417  0.27806940  0.97037129     0.21600
C2388       C  0.79187780  0.26754139  0.97734705     0.03800
C2389       C  0.79012337  0.26694957  0.99072452    -0.21600
C2390       C  0.78412869  0.27742574  0.99675814     0.13000
S2391       S  0.77420424  0.30026149  0.99884502    -0.05200
C2392       C  0.77797266  0.29146480  0.01235961    -0.08700
C2393       C  0.78296794  0.27937376  0.00977952    -0.25300
S2394       S  0.80022946  0.25655516  0.96843554    -0.02500
C2395       C  0.79795252  0.26619042  0.95516508    -0.16000
C2396       C  0.79128589  0.27743436  0.95770020    -0.14000
H2397       H  0.77837392  0.29671616  0.97090576     0.21400
H2398       H  0.79384161  0.25897106  0.99626128     0.17500
H2399       H  0.78663646  0.27285131  0.01699589     0.20000
H2400       H  0.78968374  0.28501488  0.95075150     0.13300
C2401       C  0.81508381  0.24790786  0.88859714     0.17200
C2402       C  0.81780574  0.24081164  0.87740736    -0.31800
C2403       C  0.82235799  0.24754797  0.86656050     0.21600
C2404       C  0.82416577  0.26074137  0.86689181     0.03800
C2405       C  0.82156084  0.26779271  0.87808615    -0.21600
C2406       C  0.81692360  0.26108745  0.88886229     0.13000
S2407       S  0.81001910  0.24158241  0.90297625    -0.05200
C2408       C  0.81012836  0.25688810  0.90934763    -0.08700
C2409       C  0.81415567  0.26624128  0.90069087    -0.25300
S2410       S  0.82923632  0.26724185  0.85265756    -0.02500
C2411       C  0.82894825  0.25204868  0.84605016    -0.16000
C2412       C  0.82517740  0.24248564  0.85464590    -0.14000
H2413       H  0.81643060  0.23050088  0.87716421     0.21400
H2414       H  0.82301356  0.27809367  0.87836031     0.17500
H2415       H  0.81565378  0.27623830  0.90316240     0.20000
H2416       H  0.82408383  0.23243850  0.85218032     0.13300
C2417       C  0.72313481  0.22053151  0.97926245     0.17200
C2418       C  0.72386566  0.21849520  0.99255189    -0.31800
C2419       C  0.73535658  0.21363394  0.99752557     0.21600
C2420       C  0.74585109  0.21129426  0.98968237     0.03800
C2421       C  0.74517109  0.21348928  0.97634282    -0.21600
C2422       C  0.73348307  0.21798027  0.97128686     0.13000
S2423       S  0.70946773  0.22469770  0.97138420    -0.05200
C2424       C  0.71749373  0.22262859  0.95702432    -0.08700
C2425       C  0.73033839  0.21926550  0.95847214    -0.25300
S2426       S  0.75852576  0.20441047  0.99754518    -0.02500
C2427       C  0.74959758  0.20476827  0.01152667    -0.16000
C2428       C  0.73737218  0.20972915  0.00995952    -0.14000
H2429       H  0.71559702  0.22002524  0.99867486     0.21400
H2430       H  0.75317742  0.21119453  0.97011542     0.17500
H2431       H  0.73675681  0.21687054  0.95066098     0.20000
H2432       H  0.73005883  0.20977365  0.01736437     0.13300
C2433       C  0.74912003  0.23327077  0.92461896     0.17200
C2434       C  0.76231090  0.23307276  0.92169576    -0.31800
C2435       C  0.76969767  0.24384859  0.92518852     0.21600
C2436       C  0.76408559  0.25441972  0.93100432     0.03800
C2437       C  0.75101296  0.25454838  0.93407753    -0.21600
C2438       C  0.74372874  0.24371291  0.93089694     0.13000
S2439       S  0.73851172  0.22100698  0.92174961    -0.05200
C2440       C  0.72693943  0.22997525  0.92946117    -0.08700
C2441       C  0.73105078  0.24181792  0.93380945    -0.25300
S2442       S  0.77451534  0.26638687  0.93481031    -0.02500
C2443       C  0.78683104  0.25689976  0.92917384    -0.16000
C2444       C  0.78281477  0.24520158  0.92412954    -0.14000
H2445       H  0.76666809  0.22477858  0.91719166     0.21400
H2446       H  0.74676039  0.26264010  0.93903524     0.17500
H2447       H  0.72513536  0.24850135  0.93913747     0.20000
H2448       H  0.78916604  0.23774769  0.92071009     0.13300
C2449       C  0.69116032  0.22243020  0.86785803     0.17200
C2450       C  0.69175242  0.21542552  0.87936528    -0.31800
C2451       C  0.69697951  0.22154574  0.89017774     0.21600
C2452       C  0.70135066  0.23411788  0.88964027     0.03800
C2453       C  0.70041013  0.24125653  0.87820724    -0.21600
C2454       C  0.69525816  0.23510123  0.86734480     0.13000
S2455       S  0.68615528  0.21638515  0.85343238    -0.05200
C2456       C  0.68950879  0.23111106  0.84659128    -0.08700
C2457       C  0.69414607  0.24019226  0.85520252    -0.25300
S2458       S  0.70758437  0.23964911  0.90384573    -0.02500
C2459       C  0.70417002  0.22488871  0.91057915    -0.16000
C2460       C  0.69843927  0.21628303  0.90216715    -0.14000
H2461       H  0.68852192  0.20554026  0.87980829     0.21400
H2462       H  0.70375557  0.25109902  0.87773478     0.17500
H2463       H  0.69706404  0.24984293  0.85260289     0.20000
H2464       H  0.69525409  0.20672211  0.90479866     0.13300
C2465       C  0.81416583  0.22771781  0.58139765     0.17200
C2466       C  0.81541098  0.23557827  0.59234126    -0.31800
C2467       C  0.82178160  0.23042319  0.60311877     0.21600
C2468       C  0.82660177  0.21800951  0.60297591     0.03800
C2469       C  0.82541024  0.21024608  0.59209458    -0.21600
C2470       C  0.81908788  0.21537227  0.58140298     0.13000
S2471       S  0.80712611  0.23202386  0.56709821    -0.05200
C2472       C  0.81098146  0.21701488  0.56111561    -0.08700
C2473       C  0.81721734  0.20923458  0.56997147    -0.25300
S2474       S  0.83327755  0.21310910  0.61708612    -0.02500
C2475       C  0.82963461  0.22793872  0.62339789    -0.16000
C2476       C  0.82365152  0.23626388  0.61484025    -0.14000
H2477       H  0.81157108  0.24523640  0.59246624     0.21400
H2478       H  0.82917204  0.20055096  0.59199776     0.17500
H2479       H  0.82053613  0.19956711  0.56807885     0.20000
H2480       H  0.82023209  0.24577419  0.61728099     0.13300
C2481       C  0.75006245  0.24211743  0.54761124     0.17200
C2482       C  0.75885983  0.23282486  0.55179975    -0.31800
C2483       C  0.77117887  0.23297222  0.54632453     0.21600
C2484       C  0.77467192  0.24215820  0.53728826     0.03800
C2485       C  0.76599045  0.25167735  0.53340339    -0.21600
C2486       C  0.75358761  0.25133804  0.53866725     0.13000
S2487       S  0.73426488  0.24266322  0.55195023    -0.05200
C2488       C  0.73226333  0.25538893  0.54148261    -0.08700
C2489       C  0.74351672  0.25909487  0.53528031    -0.25300
S2490       S  0.78955535  0.23993221  0.53077002    -0.02500
C2491       C  0.79101145  0.22640849  0.54021119    -0.16000
C2492       C  0.78062048  0.22397117  0.54816637    -0.14000
H2493       H  0.75604107  0.22544013  0.55858206     0.21400
H2494       H  0.76859565  0.25866926  0.52613378     0.17500
H2495       H  0.74439058  0.26686588  0.52845977     0.20000
H2496       H  0.77972735  0.21562549  0.55432389     0.13300
C2497       C  0.70084310  0.25025296  0.58072953     0.17200
C2498       C  0.69560560  0.24420670  0.59167527    -0.31800
C2499       C  0.69454696  0.25146527  0.60304799     0.21600
C2500       C  0.69846866  0.26419131  0.60341670     0.03800
C2501       C  0.70376809  0.27019075  0.59252713    -0.21600
C2502       C  0.70491790  0.26292367  0.58122118     0.13000
S2503       S  0.70212983  0.24347565  0.56577877    -0.05200
C2504       C  0.70854026  0.25774328  0.56020792    -0.08700
C2505       C  0.70935808  0.26724330  0.56951889    -0.25300
S2506       S  0.69655860  0.27135805  0.61805086    -0.02500
C2507       C  0.69056154  0.25704639  0.62396485    -0.16000
C2508       C  0.68999524  0.24729223  0.61482153    -0.14000
H2509       H  0.69240602  0.23431109  0.59131168     0.21400
H2510       H  0.70683108  0.28013300  0.59284731     0.17500
H2511       H  0.71231899  0.27704509  0.56762392     0.20000
H2512       H  0.68682002  0.23757167  0.61677365     0.13300
C2513       C  0.73909964  0.29008185  0.47989943     0.17200
C2514       C  0.73646806  0.29118361  0.49306544    -0.31800
C2515       C  0.73199660  0.28023741  0.49955288     0.21600
C2516       C  0.73045570  0.26859126  0.49328831     0.03800
C2517       C  0.73317252  0.26747342  0.48007644    -0.21600
C2518       C  0.73739608  0.27853947  0.47350288     0.13000
S2519       S  0.74353114  0.30255522  0.47024182    -0.05200
C2520       C  0.74293289  0.29228687  0.45723664    -0.08700
C2521       C  0.73954762  0.27973625  0.46047658    -0.25300
S2522       S  0.72399358  0.25673356  0.50276938    -0.02500
C2523       C  0.72334820  0.26761809  0.51523763    -0.16000
C2524       C  0.72787401  0.27974926  0.51207775    -0.14000
H2525       H  0.73742572  0.30031700  0.49794928     0.21400
H2526       H  0.73161748  0.25850330  0.47505208     0.17500
H2527       H  0.73803590  0.27204138  0.45366829     0.20000
H2528       H  0.72753717  0.28796119  0.51845023     0.13300
C2529       C  0.74416620  0.29705758  0.38663275     0.17200
C2530       C  0.73959681  0.29759756  0.37395487    -0.31800
C2531       C  0.74732497  0.30373157  0.36470869     0.21600
C2532       C  0.75921624  0.30878585  0.36786535     0.03800
C2533       C  0.76381482  0.30815537  0.38049862    -0.21600
C2534       C  0.75597095  0.30230292  0.38979652     0.13000
S2535       S  0.73559942  0.29154332  0.39955988    -0.05200
C2536       C  0.74797345  0.29649965  0.40933938    -0.08700
C2537       C  0.75819723  0.30198206  0.40277942    -0.25300
S2538       S  0.76715729  0.31581310  0.35529969    -0.02500
C2539       C  0.75422341  0.31215819  0.34568954    -0.16000
C2540       C  0.74437218  0.30570492  0.35200254    -0.14000
H2541       H  0.73024237  0.29380183  0.37149755     0.21400
H2542       H  0.77295761  0.31238314  0.38304782     0.17500
H2543       H  0.76635142  0.30648162  0.40738635     0.20000
H2544       H  0.73561284  0.30243049  0.34748079     0.13300
C2545       C  0.78341270  0.21002126  0.49662547     0.17200
C2546       C  0.77368543  0.20808286  0.48744946    -0.31800
C2547       C  0.77742701  0.20604463  0.47458374     0.21600
C2548       C  0.79025824  0.20608174  0.47104403     0.03800
C2549       C  0.79991270  0.20805880  0.48016179    -0.21600
C2550       C  0.79619515  0.20995381  0.49296770     0.13000
S2551       S  0.78113672  0.21171444  0.51289489    -0.05200
C2552       C  0.79760669  0.21224269  0.51470818    -0.08700
C2553       C  0.80429678  0.21122565  0.50321654    -0.25300
S2554       S  0.79300066  0.20256702  0.45526200    -0.02500
C2555       C  0.77668783  0.20112973  0.45323149    -0.16000
C2556       C  0.76956673  0.20311246  0.46436131    -0.14000
H2557       H  0.76368383  0.20781778  0.49026382     0.21400
H2558       H  0.80994291  0.20776127  0.47744502     0.17500
H2559       H  0.81465579  0.21093345  0.50244844     0.20000
H2560       H  0.75927501  0.20186913  0.46504979     0.13300
C2561       C  0.75736614  0.23454742  0.42325796     0.17200
C2562       C  0.74987452  0.24525894  0.42007476    -0.31800
C2563       C  0.75293894  0.25700201  0.42590781     0.21600
C2564       C  0.76313334  0.25807223  0.43439443     0.03800
C2565       C  0.77076669  0.24740687  0.43737949    -0.21600
C2566       C  0.76758196  0.23562409  0.43168559     0.13000
S2567       S  0.75444603  0.21926097  0.41817815    -0.05200
C2568       C  0.76707717  0.21416441  0.42759783    -0.08700
C2569       C  0.77329220  0.22400996  0.43409225    -0.25300
S2570       S  0.76494600  0.27299387  0.44093116    -0.02500
C2571       C  0.75176497  0.27777971  0.43221334    -0.16000
C2572       C  0.74641013  0.26834907  0.42453981    -0.14000
H2573       H  0.74177356  0.24439286  0.41363845     0.21400
H2574       H  0.77860404  0.24817464  0.44414709     0.17500
H2575       H  0.78131114  0.22281133  0.44051896     0.20000
H2576       H  0.73800215  0.26963638  0.41860446     0.13300
C2577       C  0.76970808  0.19296521  0.38484459     0.17200
C2578       C  0.77438006  0.19422440  0.37221654    -0.31800
C2579       C  0.76901547  0.18627135  0.36270012     0.21600
C2580       C  0.75913817  0.17778886  0.36554262     0.03800
C2581       C  0.75444021  0.17659047  0.37811402    -0.21600
C2582       C  0.76006392  0.18422416  0.38767852     0.13000
S2583       S  0.77574703  0.20071972  0.39804911    -0.05200
C2584       C  0.76539323  0.19181733  0.40749969    -0.08700
C2585       C  0.75756172  0.18354319  0.40059653    -0.25300
S2586       S  0.75376707  0.16911297  0.35268892    -0.02500
C2587       C  0.76519790  0.17666957  0.34339775    -0.16000
C2588       C  0.77262158  0.18558096  0.35000051    -0.14000
H2589       H  0.78212270  0.20081234  0.36998597     0.21400
H2590       H  0.74694930  0.16973621  0.38041042     0.17500
H2591       H  0.75082383  0.17686490  0.40489588     0.20000
H2592       H  0.78008311  0.19141548  0.34567361     0.13300
loop_ 
_geom_bond_atom_site_label_1 
_geom_bond_atom_site_label_2 
_geom_bond_distance 
_geom_bond_site_symmetry_2 
_ccdc_geom_bond_type 
N1            C5   1.364       .  A
N1            C2   1.362       .  A
N1         C2568   1.444       .  S
C2            C3   1.383       .  A
C2         C2584   1.485       .  S
C3            C4   1.374       .  A
C3            H6   1.082       .  S
C4            C5   1.379       .  A
C4            H7   1.082       .  S
C5         C2555   1.477       .  S
N8           C12   1.362       .  A
N8            C9   1.358       .  A
N8         C2571   1.435       .  S
C9           C10   1.378       .  A
C9         C2536   1.475       .  S
C10          C11   1.374       .  A
C10          H13   1.082       .  S
C11          C12   1.386       .  A
C11          H14   1.082       .  S
C12        C2520   1.491       .  S
N15          C19   1.366       .  A
N15          C16   1.366       .  A
N15        C2488   1.449       .  S
C16          C17   1.381       .  A
C16        C2504   1.482       .  S
C17          C18   1.373       .  A
C17          H20   1.082       .  S
C18          C19   1.380       .  A
C18          H21   1.082       .  S
C19        C2523   1.479       .  S
N22          C26   1.362       .  A
N22          C23   1.364       .  A
N22        C2491   1.436       .  S
C23          C24   1.386       .  A
C23        C2472   1.491       .  S
C24          C25   1.370       .  A
C24          H27   1.082       .  S
C25          C26   1.381       .  A
C25          H28   1.082       .  S
C26        C2552   1.487       .  S
N29          C33   1.361       .  A
N29          C30   1.360       .  A
N29        C2440   1.435       .  S
C30          C31   1.381       .  A
C30        C2459   1.481       .  S
C31          C32   1.374       .  A
C31          H34   1.082       .  S
C32          C33   1.384       .  A
C32          H35   1.082       .  S
C33        C2424   1.489       .  S
N36          C40   1.363       .  A
N36          C37   1.364       .  A
N36        C2443   1.444       .  S
C37          C38   1.383       .  A
C37        C2408   1.482       .  S
C38          C39   1.374       .  A
C38          H41   1.082       .  S
C39          C40   1.379       .  A
C39          H42   1.082       .  S
C40        C2395   1.480       .  S
N43          C47   1.363       .  A
N43          C44   1.360       .  A
N43        C2360   1.442       .  S
C44          C45   1.381       .  A
C44        C2379   1.478       .  S
C45          C46   1.376       .  A
C45          H48   1.082       .  S
C46          C47   1.381       .  A
C46          H49   1.082       .  S
C47        C2427   1.481       .  S
N50          C54   1.358       .  A
N50          C51   1.358       .  A
N50        C2363   1.435       .  S
C51          C52   1.383       .  A
C51        C2344   1.479       .  S
C52          C53   1.374       .  A
C52          H55   1.082       .  S
C53          C54   1.382       .  A
C53          H56   1.082       .  S
C54        C2392   1.480       .  S
N57          C61   1.361       .  A
N57          C58   1.359       .  A
N57        C2312   1.447       .  S
C58          C59   1.383       .  A
C58        C2328   1.475       .  S
C59          C60   1.372       .  A
C59          H62   1.082       .  S
C60          C61   1.379       .  A
C60          H63   1.082       .  S
C61        C2296   1.467       .  S
N64          C68   1.361       .  A
N64          C65   1.358       .  A
N64        C2315   1.436       .  S
C65          C66   1.381       .  A
C65        C2280   1.477       .  S
C66          C67   1.374       .  A
C66          H69   1.082       .  S
C67          C68   1.384       .  A
C67          H70   1.082       .  S
C68        C2264   1.488       .  S
N71          C75   1.356       .  A
N71          C72   1.355       .  A
N71        C2232   1.434       .  S
C72          C73   1.384       .  A
C72        C2251   1.477       .  S
C73          C74   1.373       .  A
C73          H76   1.082       .  S
C74          C75   1.382       .  A
C74          H77   1.082       .  S
C75        C2299   1.477       .  S
N78          C82   1.363       .  A
N78          C79   1.361       .  A
N78        C2235   1.445       .  S
C79          C80   1.383       .  A
C79        C2216   1.482       .  S
C80          C81   1.374       .  A
C80          H83   1.082       .  S
C81          C82   1.380       .  A
C81          H84   1.082       .  S
C82        C2267   1.477       .  S
O85         Cu93   2.006       .  S
O85          C95   1.277       .  A
O86         Cu93   2.002       .  S
O86          C96   1.277       .  A
O87         Cu93   2.021       .  S
O87          C97   1.278       .  A
O88         Cu93   2.016       .  S
O88          C98   1.279       .  A
O89         Cu94   2.025       .  S
O89          C98   1.279       .  A
O90         Cu94   2.009       .  S
O90          C97   1.278       .  A
O91         Cu94   2.009       .  S
O91          C96   1.277       .  A
O92         Cu94   2.025       .  S
O92          C95   1.280       .  A
Cu93        Cu94   2.373       .  S
C95        C2347   1.475       .  S
C96        C2203   1.469       .  S
C97        C2184   1.476       .  S
C98        C2168   1.479       .  S
O99        Cu107   2.009       .  S
O99         C109   1.277       .  A
O100       Cu107   2.015       .  S
O100        C110   1.278       .  A
O101       Cu107   2.014       .  S
O101        C111   1.279       .  A
O102       Cu107   2.003       .  S
O102        C112   1.277       .  A
O103       Cu108   2.007       .  S
O103        C112   1.277       .  A
O104       Cu108   2.018       .  S
O104        C111   1.278       .  A
O105       Cu108   2.015       .  S
O105        C110   1.279       .  A
O106       Cu108   2.005       .  S
O106        C109   1.278       .  A
Cu107      Cu108   2.373       .  S
C109       C2200   1.470       .  S
C110       C2539   1.477       .  S
C111       C2136   1.478       .  S
C112       C2155   1.468       .  S
O113       Cu121   2.013       .  S
O113        C123   1.277       .  A
O114       Cu121   2.018       .  S
O114        C124   1.279       .  A
O115       Cu121   2.032       .  S
O115        C125   1.280       .  A
O116       Cu121   2.029       .  S
O116        C126   1.280       .  A
O117       Cu122   1.998       .  S
O117        C126   1.276       .  A
O118       Cu122   2.017       .  S
O118        C125   1.279       .  A
O119       Cu122   2.030       .  S
O119        C124   1.279       .  A
O120       Cu122   2.016       .  S
O120        C123   1.280       .  A
Cu121      Cu122   2.371       .  S
C123       C2187   1.476       .  S
C124       C2219   1.480       .  S
C125       C2376   1.483       .  S
C126       C2120   1.474       .  S
O127       Cu135   2.010       .  S
O127        C137   1.278       .  A
O128       Cu135   2.013       .  S
O128        C138   1.277       .  A
O129       Cu135   2.019       .  S
O129        C139   1.279       .  A
O130       Cu135   2.007       .  S
O130        C140   1.278       .  A
O131       Cu136   2.021       .  S
O131        C140   1.279       .  A
O132       Cu136   2.020       .  S
O132        C139   1.279       .  A
O133       Cu136   2.003       .  S
O133        C138   1.278       .  A
O134       Cu136   1.993       .  S
O134        C137   1.276       .  A
Cu135      Cu136   2.373       .  S
C137       C2152   1.467       .  S
C138       C2248   1.469       .  S
C139       C2587   1.476       .  S
C140       C2123   1.475       .  S
N141        C145   1.363       .  A
N141        C142   1.359       .  A
N141       C2107   1.436       .  S
C142        C143   1.380       .  A
C142       C2171   1.478       .  S
C143        C144   1.371       .  A
C143        H146   1.082       .  S
C144        C145   1.386       .  A
C144        H147   1.082       .  S
C145       C2091   1.491       .  S
N148        C152   1.361       .  A
N148        C149   1.361       .  A
N148       C2104   1.446       .  S
C149        C150   1.382       .  A
C149       C2139   1.473       .  S
C150        C151   1.373       .  A
C150        H153   1.082       .  S
C151        C152   1.379       .  A
C151        H154   1.082       .  S
C152       C2072   1.473       .  S
N155        C159   1.363       .  A
N155        C156   1.363       .  A
N155       C2040   1.449       .  S
C156        C157   1.383       .  A
C156       C2056   1.480       .  S
C157        C158   1.371       .  A
C157        H160   1.082       .  S
C158        C159   1.378       .  A
C158        H161   1.082       .  S
C159       C2088   1.472       .  S
N162        C166   1.360       .  A
N162        C163   1.357       .  A
N162       C2043   1.438       .  S
C163        C164   1.380       .  A
C163       C2024   1.473       .  S
C164        C165   1.372       .  A
C164        H167   1.082       .  S
C165        C166   1.384       .  A
C165        H168   1.082       .  S
C166       C2075   1.481       .  S
O169       Cu177   2.016       .  S
O169        C179   1.278       .  A
O170       Cu177   2.007       .  S
O170        C180   1.276       .  A
O171       Cu177   2.010       .  S
O171        C181   1.278       .  A
O172       Cu177   2.025       .  S
O172        C182   1.281       .  A
O173       Cu178   2.005       .  S
O173        C182   1.277       .  A
O174       Cu178   2.006       .  S
O174        C181   1.277       .  A
O175       Cu178   2.021       .  S
O175        C180   1.280       .  A
O176       Cu178   2.030       .  S
O176        C179   1.280       .  A
Cu177      Cu178   2.372       .  S
C179       C1976   1.478       .  S
C180       C2008   1.475       .  S
C181       C1992   1.470       .  S
C182       C2283   1.478       .  S
O183       Cu191   1.998       .  S
O183        C193   1.277       .  A
O184       Cu191   1.982       .  S
O184        C194   1.275       .  A
O185       Cu191   2.006       .  S
O185        C195   1.278       .  A
O186       Cu191   2.005       .  S
O186        C196   1.277       .  A
O187       Cu192   2.028       .  S
O187        C196   1.280       .  A
O188       Cu192   2.007       .  S
O188        C195   1.277       .  A
O189       Cu192   2.028       .  S
O189        C194   1.280       .  A
O190       Cu192   2.032       .  S
O190        C193   1.280       .  A
Cu191      Cu192   2.373       .  S
C193       C1928   1.475       .  S
C194       C1960   1.467       .  S
C195       C1944   1.470       .  S
C196       C2059   1.474       .  S
O197       Cu205   2.022       .  S
O197        C207   1.280       .  A
O198       Cu205   2.013       .  S
O198        C208   1.277       .  A
O199       Cu205   2.004       .  S
O199        C209   1.277       .  A
O200       Cu205   2.017       .  S
O200        C210   1.280       .  A
O201       Cu206   2.005       .  S
O201        C210   1.277       .  A
O202       Cu206   2.005       .  S
O202        C209   1.278       .  A
O203       Cu206   1.998       .  S
O203        C208   1.278       .  A
O204       Cu206   2.014       .  S
O204        C207   1.277       .  A
Cu205      Cu206   2.374       .  S
C207       C1915   1.476       .  S
C208       C1963   1.469       .  S
C209       C1995   1.469       .  S
C210       C2027   1.474       .  S
O211       Cu219   1.989       .  S
O211        C221   1.275       .  A
O212       Cu219   2.000       .  S
O212        C222   1.276       .  A
O213       Cu219   2.032       .  S
O213        C223   1.281       .  A
O214       Cu219   2.038       .  S
O214        C224   1.281       .  A
O215       Cu220   1.990       .  S
O215        C224   1.275       .  A
O216       Cu220   2.004       .  S
O216        C223   1.277       .  A
O217       Cu220   2.026       .  S
O217        C222   1.280       .  A
O218       Cu220   2.023       .  S
O218        C221   1.280       .  A
Cu219      Cu220   2.372       .  S
C221       C1947   1.469       .  S
C222       C2331   1.471       .  S
C223       C1899   1.479       .  S
C224       C2011   1.476       .  S
N225        C229   1.358       .  A
N225        C226   1.356       .  A
N225       C1864   1.433       .  S
C226        C227   1.380       .  A
C226       C1880   1.473       .  S
C227        C228   1.375       .  A
C227        H230   1.082       .  S
C228        C229   1.384       .  A
C228        H231   1.082       .  S
C229       C1848   1.484       .  S
N232        C236   1.366       .  A
N232        C233   1.365       .  A
N232       C1867   1.443       .  S
C233        C234   1.383       .  A
C233       C1832   1.492       .  S
C234        C235   1.377       .  A
C234        H237   1.082       .  S
C235        C236   1.380       .  A
C235        H238   1.082       .  S
C236       C1816   1.485       .  S
N239        C243   1.364       .  A
N239        C240   1.360       .  A
N239       C1803   1.433       .  S
C240        C241   1.378       .  A
C240       C1912   1.479       .  S
C241        C242   1.373       .  A
C241        H244   1.082       .  S
C242        C243   1.389       .  A
C242        H245   1.081       .  S
C243       C1819   1.502       .  S
N246        C250   1.360       .  A
N246        C247   1.358       .  A
N246       C1800   1.441       .  S
C247        C248   1.383       .  A
C247       C1979   1.479       .  S
C248        C249   1.376       .  A
C248        H251   1.082       .  S
C249        C250   1.380       .  A
C249        H252   1.082       .  S
C250       C1851   1.475       .  S
N253        C257   1.362       .  A
N253        C254   1.361       .  A
N253       C1784   1.437       .  S
C254        C255   1.385       .  A
C254       C1931   1.486       .  S
C255        C256   1.373       .  A
C255        H258   1.082       .  S
C256        C257   1.381       .  A
C256        H259   1.082       .  S
C257       C1768   1.487       .  S
N260        C264   1.366       .  A
N260        C261   1.364       .  A
N260       C1787   1.452       .  S
C261        C262   1.380       .  A
C261       C1896   1.476       .  S
C262        C263   1.370       .  A
C262        H265   1.083       .  S
C263        C264   1.379       .  A
C263        H266   1.082       .  S
C264       C1752   1.474       .  S
N267        C271   1.363       .  A
N267        C268   1.362       .  A
N267       C1720   1.440       .  S
C268        C269   1.382       .  A
C268       C1739   1.485       .  S
C269        C270   1.374       .  A
C269        H272   1.082       .  S
C270        C271   1.380       .  A
C270        H273   1.082       .  S
C271       C1771   1.482       .  S
N274        C278   1.360       .  A
N274        C275   1.357       .  A
N274       C1723   1.432       .  S
C275        C276   1.381       .  A
C275       C1704   1.480       .  S
C276        C277   1.376       .  A
C276        H279   1.082       .  S
C277        C278   1.386       .  A
C277        H280   1.082       .  S
C278       C1755   1.492       .  S
N281        C285   1.362       .  A
N281        C282   1.358       .  A
N281       C1672   1.438       .  S
C282        C283   1.380       .  A
C282       C1688   1.475       .  S
C283        C284   1.372       .  A
C283        H286   1.082       .  S
C284        C285   1.385       .  A
C284        H287   1.082       .  S
C285       C1656   1.487       .  S
N288        C292   1.366       .  A
N288        C289   1.363       .  A
N288       C1675   1.450       .  S
C289        C290   1.380       .  A
C289       C1640   1.475       .  S
C290        C291   1.371       .  A
C290        H293   1.082       .  S
C291        C292   1.380       .  A
C291        H294   1.082       .  S
C292       C1624   1.476       .  S
N295        C299   1.359       .  A
N295        C296   1.359       .  A
N295       C1592   1.448       .  S
C296        C297   1.382       .  A
C296       C1608   1.474       .  S
C297        C298   1.375       .  A
C297        H300   1.082       .  S
C298        C299   1.380       .  A
C298        H301   1.082       .  S
C299       C1659   1.469       .  S
N302        C306   1.363       .  A
N302        C303   1.360       .  A
N302       C1595   1.437       .  S
C303        C304   1.382       .  A
C303       C1579   1.482       .  S
C304        C305   1.373       .  A
C304        H307   1.082       .  S
C305        C306   1.383       .  A
C305        H308   1.082       .  S
C306       C1627   1.488       .  S
O309       Cu317   2.025       .  S
O309        C319   1.280       .  A
O310       Cu317   2.028       .  S
O310        C320   1.280       .  A
O311       Cu317   2.000       .  S
O311        C321   1.276       .  A
O312       Cu317   2.022       .  S
O312        C322   1.279       .  A
O313       Cu318   2.027       .  S
O313        C322   1.280       .  A
O314       Cu318   2.022       .  S
O314        C321   1.280       .  A
O315       Cu318   2.009       .  S
O315        C320   1.278       .  A
O316       Cu318   2.017       .  S
O316        C319   1.279       .  A
Cu317      Cu318   2.370       .  S
C319       C1576   1.480       .  S
C320       C1547   1.478       .  S
C321       C1560   1.473       .  S
C322       C1736   1.480       .  S
O323       Cu331   2.017       .  S
O323        C333   1.278       .  A
O324       Cu331   2.011       .  S
O324        C334   1.279       .  A
O325       Cu331   2.016       .  S
O325        C335   1.278       .  A
O326       Cu331   2.015       .  S
O326        C336   1.278       .  A
O327       Cu332   2.016       .  S
O327        C336   1.280       .  A
O328       Cu332   2.009       .  S
O328        C335   1.278       .  A
O329       Cu332   1.996       .  S
O329        C334   1.275       .  A
O330       Cu332   2.006       .  S
O330        C333   1.278       .  A
Cu331      Cu332   2.374       .  S
C333       C1611   1.474       .  S
C334       C1528   1.467       .  S
C335       C1563   1.474       .  S
C336       C1883   1.478       .  S
O337       Cu345   2.028       .  S
O337        C347   1.280       .  A
O338       Cu345   2.025       .  S
O338        C348   1.280       .  A
O339       Cu345   2.016       .  S
O339        C349   1.278       .  A
O340       Cu345   2.005       .  S
O340        C350   1.277       .  A
O341       Cu346   2.027       .  S
O341        C350   1.280       .  A
O342       Cu346   2.030       .  S
O342        C349   1.280       .  A
O343       Cu346   2.018       .  S
O343        C348   1.278       .  A
O344       Cu346   2.006       .  S
O344        C347   1.277       .  A
Cu345      Cu346   2.370       .  S
C347       C1512   1.477       .  S
C348       C1707   1.476       .  S
C349       C1496   1.481       .  S
C350       C1544   1.477       .  S
O351       Cu359   2.041       .  S
O351        C361   1.282       .  A
O352       Cu359   2.025       .  S
O352        C362   1.280       .  A
O353       Cu359   1.978       .  S
O353        C363   1.274       .  A
O354       Cu359   2.005       .  S
O354        C364   1.277       .  A
O355       Cu360   2.028       .  S
O355        C364   1.279       .  A
O356       Cu360   2.023       .  S
O356        C363   1.279       .  A
O357       Cu360   2.021       .  S
O357        C362   1.279       .  A
O358       Cu360   2.031       .  S
O358        C361   1.280       .  A
Cu359      Cu360   2.372       .  S
C361       C1835   1.490       .  S
C362       C1515   1.481       .  S
C363       C1531   1.464       .  S
C364       C1480   1.473       .  S
N365        C369   1.361       .  A
N365        C366   1.361       .  A
N365       C1448   1.441       .  S
C366        C367   1.382       .  A
C366       C1464   1.480       .  S
C367        C368   1.375       .  A
C367        H370   1.082       .  S
C368        C369   1.380       .  A
C368        H371   1.082       .  S
C369       C1435   1.478       .  S
N372        C376   1.361       .  A
N372        C373   1.358       .  A
N372       C1451   1.434       .  S
C373        C374   1.379       .  A
C373       C1416   1.477       .  S
C374        C375   1.374       .  A
C374        H377   1.082       .  S
C375        C376   1.385       .  A
C375        H378   1.082       .  S
C376       C1400   1.489       .  S
N379        C383   1.363       .  A
N379        C380   1.362       .  A
N379       C1384   1.444       .  S
C380        C381   1.383       .  A
C380       C1483   1.482       .  S
C381        C382   1.374       .  A
C381        H384   1.082       .  S
C382        C383   1.380       .  A
C382        H385   1.082       .  S
C383       C1403   1.477       .  S
N386        C390   1.359       .  A
N386        C387   1.358       .  A
N386       C1387   1.433       .  S
C387        C388   1.384       .  A
C387       C1499   1.484       .  S
C388        C389   1.377       .  A
C388        H391   1.082       .  S
C389        C390   1.383       .  A
C389        H392   1.082       .  S
C390       C1432   1.486       .  S
O393       Cu401   2.027       .  S
O393        C403   1.280       .  A
O394       Cu401   2.021       .  S
O394        C404   1.279       .  A
O395       Cu401   2.018       .  S
O395        C405   1.279       .  A
O396       Cu401   2.028       .  S
O396        C406   1.280       .  A
O397       Cu402   2.021       .  S
O397        C406   1.279       .  A
O398       Cu402   2.013       .  S
O398        C405   1.278       .  A
O399       Cu402   1.996       .  S
O399        C404   1.276       .  A
O400       Cu402   2.012       .  S
O400        C403   1.278       .  A
Cu401      Cu402   2.371       .  S
C403       C1467   1.481       .  S
C404       C1355   1.471       .  S
C405       C1368   1.475       .  S
C406       C1336   1.481       .  S
O407       Cu415   2.022       .  S
O407        C417   1.279       .  A
O408       Cu415   2.013       .  S
O408        C418   1.278       .  A
O409       Cu415   2.027       .  S
O409        C419   1.280       .  A
O410       Cu415   2.019       .  S
O410        C420   1.279       .  A
O411       Cu416   2.011       .  S
O411        C420   1.278       .  A
O412       Cu416   2.000       .  S
O412        C419   1.276       .  A
O413       Cu416   2.018       .  S
O413        C418   1.279       .  A
O414       Cu416   2.029       .  S
O414        C417   1.280       .  A
Cu415      Cu416   2.371       .  S
C417       C1288   1.483       .  S
C418       C1320   1.476       .  S
C419       C1304   1.474       .  S
C420       C1643   1.478       .  S
O421       Cu429   2.028       .  S
O421        C431   1.280       .  A
O422       Cu429   2.010       .  S
O422        C432   1.277       .  A
O423       Cu429   2.026       .  S
O423        C433   1.280       .  A
O424       Cu429   2.042       .  S
O424        C434   1.281       .  A
O425       Cu430   2.011       .  S
O425        C434   1.278       .  A
O426       Cu430   2.007       .  S
O426        C433   1.277       .  A
O427       Cu430   1.998       .  S
O427        C432   1.277       .  A
O428       Cu430   2.002       .  S
O428        C431   1.277       .  A
Cu429      Cu430   2.372       .  S
C431       C1691   1.477       .  S
C432       C1352   1.468       .  S
C433       C1323   1.476       .  S
C434       C1272   1.485       .  S
O435       Cu443   2.009       .  S
O435        C445   1.277       .  A
O436       Cu443   1.998       .  S
O436        C446   1.276       .  A
O437       Cu443   2.028       .  S
O437        C447   1.281       .  A
O438       Cu443   2.031       .  S
O438        C448   1.280       .  A
O439       Cu444   2.002       .  S
O439        C448   1.277       .  A
O440       Cu444   1.996       .  S
O440        C447   1.275       .  A
O441       Cu444   2.028       .  S
O441        C446   1.280       .  A
O442       Cu444   2.035       .  S
O442        C445   1.281       .  A
Cu443      Cu444   2.372       .  S
C445       C1419   1.482       .  S
C446       C1307   1.474       .  S
C447       C1371   1.474       .  S
C448       C1256   1.478       .  S
O449       Cu457   2.012       .  S
O449        C459   1.278       .  A
O450       Cu457   2.029       .  S
O450        C460   1.280       .  A
O451       Cu457   2.032       .  S
O451        C461   1.280       .  A
O452       Cu457   2.026       .  S
O452        C462   1.280       .  A
O453       Cu458   2.008       .  S
O453        C462   1.277       .  A
O454       Cu458   2.001       .  S
O454        C461   1.276       .  A
O455       Cu458   2.014       .  S
O455        C460   1.278       .  A
O456       Cu458   2.020       .  S
O456        C459   1.279       .  A
Cu457      Cu458   2.372       .  S
C459       C1224   1.477       .  S
C460       C1208   1.480       .  S
C461       C2475   1.474       .  S
C462       C1240   1.478       .  S
O463       Cu471   2.022       .  S
O463        C473   1.279       .  A
O464       Cu471   2.008       .  S
O464        C474   1.278       .  A
O465       Cu471   2.016       .  S
O465        C475   1.278       .  A
O466       Cu471   2.019       .  S
O466        C476   1.278       .  A
O467       Cu472   2.024       .  S
O467        C476   1.280       .  A
O468       Cu472   2.013       .  S
O468        C475   1.279       .  A
O469       Cu472   2.001       .  S
O469        C474   1.276       .  A
O470       Cu472   2.004       .  S
O470        C473   1.277       .  A
Cu471      Cu472   2.373       .  S
C473       C1160   1.473       .  S
C474       C1176   1.467       .  S
C475       C1195   1.476       .  S
C476       C2456   1.480       .  S
O477       Cu485   2.019       .  S
O477        C487   1.279       .  A
O478       Cu485   2.036       .  S
O478        C488   1.280       .  A
O479       Cu485   2.043       .  S
O479        C489   1.282       .  A
O480       Cu485   2.016       .  S
O480        C490   1.279       .  A
O481       Cu486   2.016       .  S
O481        C490   1.278       .  A
O482       Cu486   2.015       .  S
O482        C489   1.278       .  A
O483       Cu486   2.016       .  S
O483        C488   1.279       .  A
O484       Cu486   2.011       .  S
O484        C487   1.278       .  A
Cu485      Cu486   2.370       .  S
C487       C1227   1.476       .  S
C488       C1144   1.484       .  S
C489       C2507   1.488       .  S
C490       C1192   1.476       .  S
O491       Cu499   2.024       .  S
O491        C501   1.280       .  A
O492       Cu499   2.012       .  S
O492        C502   1.278       .  A
O493       Cu499   2.003       .  S
O493        C503   1.276       .  A
O494       Cu499   2.010       .  S
O494        C504   1.278       .  A
O495       Cu500   2.022       .  S
O495        C504   1.279       .  A
O496       Cu500   2.003       .  S
O496        C503   1.278       .  A
O497       Cu500   2.023       .  S
O497        C502   1.279       .  A
O498       Cu500   2.029       .  S
O498        C501   1.280       .  A
Cu499      Cu500   2.372       .  S
C501       C2411   1.485       .  S
C502       C1243   1.477       .  S
C503       C1179   1.467       .  S
C504       C1131   1.477       .  S
N505        C509   1.357       .  A
N505        C506   1.356       .  A
N505       C1096   1.430       .  S
C506        C507   1.381       .  A
C506       C1112   1.477       .  S
C507        C508   1.379       .  A
C507        H510   1.082       .  S
C508        C509   1.384       .  A
C508        H511   1.082       .  S
C509       C1080   1.485       .  S
N512        C516   1.359       .  A
N512        C513   1.359       .  A
N512       C1099   1.436       .  S
C513        C514   1.382       .  A
C513       C1067   1.480       .  S
C514        C515   1.375       .  A
C514        H517   1.082       .  S
C515        C516   1.382       .  A
C515        H518   1.082       .  S
C516       C1051   1.481       .  S
N519        C523   1.362       .  A
N519        C520   1.359       .  A
N519       C1035   1.437       .  S
C520        C521   1.377       .  A
C520       C1259   1.474       .  S
C521        C522   1.371       .  A
C521        H524   1.082       .  S
C522        C523   1.386       .  A
C522        H525   1.082       .  S
C523       C1048   1.487       .  S
N526        C530   1.357       .  A
N526        C527   1.358       .  A
N526       C1032   1.431       .  S
C527        C528   1.383       .  A
C527       C1291   1.482       .  S
C528        C529   1.379       .  A
C528        H531   1.082       .  S
C529        C530   1.381       .  A
C529        H532   1.082       .  S
C530       C1083   1.482       .  S
N533        C537   1.366       .  A
N533        C534   1.364       .  A
N533       C1019   1.447       .  S
C534        C535   1.383       .  A
C534       C1339   1.488       .  S
C535        C536   1.375       .  A
C535        H538   1.082       .  S
C536        C537   1.380       .  A
C536        H539   1.082       .  S
C537       C1000   1.481       .  S
N540        C544   1.361       .  A
N540        C541   1.360       .  A
N540       C1016   1.435       .  S
C541        C542   1.383       .  A
C541       C1275   1.485       .  S
C542        C543   1.374       .  A
C542        H545   1.082       .  S
C543        C544   1.382       .  A
C543        H546   1.082       .  S
C544        C984   1.486       .  S
N547        C551   1.362       .  A
N547        C548   1.359       .  A
N547        C952   1.433       .  S
C548        C549   1.381       .  A
C548        C968   1.483       .  S
C549        C550   1.374       .  A
C549        H552   1.082       .  S
C550        C551   1.386       .  A
C550        H553   1.082       .  S
C551       C1003   1.494       .  S
N554        C558   1.360       .  A
N554        C555   1.358       .  A
N554        C955   1.440       .  S
C555        C556   1.382       .  A
C555        C936   1.474       .  S
C556        C557   1.374       .  A
C556        H559   1.082       .  S
C557        C558   1.380       .  A
C557        H560   1.082       .  S
C558        C987   1.476       .  S
N561        C565   1.362       .  A
N561        C562   1.361       .  A
N561        C920   1.441       .  S
C562        C563   1.382       .  A
C562       C1128   1.482       .  S
C563        C564   1.373       .  A
C563        H566   1.082       .  S
C564        C565   1.381       .  A
C564        H567   1.082       .  S
C565        C904   1.480       .  S
N568        C572   1.361       .  A
N568        C569   1.356       .  A
N568        C923   1.431       .  S
C569        C570   1.381       .  A
C569       C1211   1.481       .  S
C570        C571   1.378       .  A
C570        H573   1.082       .  S
C571        C572   1.386       .  A
C571        H574   1.082       .  S
C572        C888   1.493       .  S
N575        C579   1.361       .  A
N575        C576   1.359       .  A
N575        C856   1.436       .  S
C576        C577   1.381       .  A
C576        C872   1.477       .  S
C577        C578   1.374       .  A
C577        H580   1.082       .  S
C578        C579   1.383       .  A
C578        H581   1.082       .  S
C579        C907   1.486       .  S
N582        C586   1.366       .  A
N582        C583   1.364       .  A
N582        C859   1.446       .  S
C583        C584   1.382       .  A
C583        C840   1.488       .  S
C584        C585   1.375       .  A
C584        H587   1.082       .  S
C585        C586   1.381       .  A
C585        H588   1.082       .  S
C586        C891   1.484       .  S
O589       Cu597   2.023       .  S
O589        C599   1.279       .  A
O590       Cu597   2.002       .  S
O590        C600   1.278       .  A
O591       Cu597   2.023       .  S
O591        C601   1.279       .  A
O592       Cu597   2.023       .  S
O592        C602   1.279       .  A
O593       Cu598   2.035       .  S
O593        C602   1.280       .  A
O594       Cu598   2.021       .  S
O594        C601   1.279       .  A
O595       Cu598   2.012       .  S
O595        C600   1.278       .  A
O596       Cu598   2.016       .  S
O596        C599   1.278       .  A
Cu597      Cu598   2.371       .  S
C599        C971   1.478       .  S
C600        C827   1.471       .  S
C601        C808   1.481       .  S
C602        C843   1.484       .  S
O603       Cu611   2.017       .  S
O603        C613   1.278       .  A
O604       Cu611   2.016       .  S
O604        C614   1.280       .  A
O605       Cu611   1.993       .  S
O605        C615   1.275       .  A
O606       Cu611   2.004       .  S
O606        C616   1.276       .  A
O607       Cu612   2.035       .  S
O607        C616   1.281       .  A
O608       Cu612   2.028       .  S
O608        C615   1.280       .  A
O609       Cu612   2.009       .  S
O609        C614   1.277       .  A
O610       Cu612   2.020       .  S
O610        C613   1.279       .  A
Cu611      Cu612   2.372       .  S
C613        C875   1.480       .  S
C614        C792   1.474       .  S
C615        C824   1.472       .  S
C616       C1115   1.479       .  S
O617       Cu625   2.025       .  S
O617        C627   1.280       .  A
O618       Cu625   2.025       .  S
O618        C628   1.279       .  A
O619       Cu625   2.002       .  S
O619        C629   1.277       .  A
O620       Cu625   2.013       .  S
O620        C630   1.278       .  A
O621       Cu626   2.021       .  S
O621        C630   1.279       .  A
O622       Cu626   2.007       .  S
O622        C629   1.278       .  A
O623       Cu626   2.005       .  S
O623        C628   1.277       .  A
O624       Cu626   2.026       .  S
O624        C627   1.280       .  A
Cu625      Cu626   2.373       .  S
C627        C760   1.485       .  S
C628        C795   1.475       .  S
C629        C779   1.467       .  S
C630       C1064   1.475       .  S
O631       Cu639   2.003       .  S
O631        C641   1.277       .  A
O632       Cu639   2.005       .  S
O632        C642   1.278       .  A
O633       Cu639   2.001       .  S
O633        C643   1.277       .  A
O634       Cu639   2.010       .  S
O634        C644   1.277       .  A
O635       Cu640   2.040       .  S
O635        C644   1.281       .  A
O636       Cu640   2.038       .  S
O636        C643   1.281       .  A
O637       Cu640   1.996       .  S
O637        C642   1.275       .  A
O638       Cu640   2.017       .  S
O638        C641   1.278       .  A
Cu639      Cu640   2.372       .  S
C641        C939   1.471       .  S
C642        C776   1.465       .  S
C643        C811   1.479       .  S
C644        C744   1.481       .  S
N645        C649   1.365       .  A
N645        C646   1.362       .  A
N645        C728   1.448       .  S
C646        C647   1.381       .  A
C646       C1163   1.480       .  S
C647        C648   1.373       .  A
C647        H650   1.082       .  S
C648        C649   1.381       .  A
C648        H651   1.082       .  S
C649        C712   1.479       .  S
N652        C656   1.364       .  A
N652        C653   1.361       .  A
N652        C731   1.434       .  S
C653        C654   1.382       .  A
C653       C1147   1.487       .  S
C654        C655   1.373       .  A
C654        H657   1.082       .  S
C655        C656   1.384       .  A
C655        H658   1.082       .  S
C656        C696   1.493       .  S
N659        C663   1.361       .  A
N659        C660   1.361       .  A
N659        C680   1.438       .  S
C660        C661   1.384       .  A
C660        C747   1.484       .  S
C661        C662   1.374       .  A
C661        H664   1.082       .  S
C662        C663   1.381       .  A
C662        H665   1.082       .  S
C663        C715   1.484       .  S
N666        C670   1.366       .  A
N666        C667   1.365       .  A
N666        C683   1.450       .  S
C667        C668   1.381       .  A
C667        C763   1.481       .  S
C668        C669   1.373       .  A
C668        H671   1.082       .  S
C669        C670   1.380       .  A
C669        H672   1.082       .  S
C670        C699   1.478       .  S
C673        C678   1.387       .  A
C673        C674   1.405       .  A
C673        S679   1.713       .  A
C674        C675   1.406       .  A
C674        H685   1.083       .  S
C675        C684   1.375       .  A
C675        C676   1.385       .  A
C676        C677   1.402       .  A
C676        S682   1.705       .  A
C677        C678   1.403       .  A
C677        H686   1.083       .  S
C678        C681   1.371       .  A
S679        C680   1.722       .  A
C680        C681   1.386       .  A
C681        H687   1.083       .  S
S682        C683   1.728       .  A
C683        C684   1.392       .  A
C684        H688   1.081       .  S
C689        C694   1.384       .  A
C689        C690   1.409       .  A
C689        S695   1.718       .  A
C690        C691   1.410       .  A
C690        H701   1.083       .  S
C691        C700   1.379       .  A
C691        C692   1.387       .  A
C692        C693   1.401       .  A
C692        S698   1.708       .  A
C693        C694   1.402       .  A
C693        H702   1.083       .  S
C694        C697   1.370       .  A
S695        C696   1.730       .  A
C696        C697   1.390       .  A
C697        H703   1.083       .  S
S698        C699   1.720       .  A
C699        C700   1.390       .  A
C700        H704   1.083       .  S
C705        C710   1.386       .  A
C705        C706   1.402       .  A
C705        S711   1.709       .  A
C706        C707   1.403       .  A
C706        H717   1.083       .  S
C707        C716   1.371       .  A
C707        C708   1.386       .  A
C708        C709   1.406       .  A
C708        S714   1.714       .  A
C709        C710   1.407       .  A
C709        H718   1.083       .  S
C710        C713   1.375       .  A
S711        C712   1.724       .  A
C712        C713   1.389       .  A
C713        H719   1.083       .  S
S714        C715   1.726       .  A
C715        C716   1.388       .  A
C716        H720   1.083       .  S
C721        C726   1.385       .  A
C721        C722   1.402       .  A
C721        S727   1.704       .  A
C722        C723   1.402       .  A
C722        H733   1.083       .  S
C723        C732   1.371       .  A
C723        C724   1.388       .  A
C724        C725   1.403       .  A
C724        S730   1.709       .  A
C725        C726   1.404       .  A
C725        H734   1.083       .  S
C726        C729   1.373       .  A
S727        C728   1.725       .  A
C728        C729   1.392       .  A
C729        H735   1.082       .  S
S730        C731   1.721       .  A
C731        C732   1.384       .  A
C732        H736   1.083       .  S
C737        C742   1.387       .  A
C737        C738   1.402       .  A
C737        S743   1.708       .  A
C738        C739   1.403       .  A
C738        H749   1.083       .  S
C739        C748   1.370       .  A
C739        C740   1.385       .  A
C740        C741   1.409       .  A
C740        S746   1.719       .  A
C741        C742   1.410       .  A
C741        H750   1.083       .  S
C742        C745   1.380       .  A
S743        C744   1.724       .  A
C744        C745   1.392       .  A
C745        H751   1.083       .  S
S746        C747   1.726       .  A
C747        C748   1.388       .  A
C748        H752   1.083       .  S
C753        C758   1.386       .  A
C753        C754   1.408       .  A
C753        S759   1.714       .  A
C754        C755   1.408       .  A
C754        H765   1.083       .  S
C755        C764   1.379       .  A
C755        C756   1.386       .  A
C756        C757   1.405       .  A
C756        S762   1.709       .  A
C757        C758   1.405       .  A
C757        H766   1.083       .  S
C758        C761   1.377       .  A
S759        C760   1.728       .  A
C760        C761   1.390       .  A
C761        H767   1.083       .  S
S762        C763   1.724       .  A
C763        C764   1.390       .  A
C764        H768   1.083       .  S
C769        C774   1.387       .  A
C769        C770   1.400       .  A
C769        S775   1.706       .  A
C770        C771   1.402       .  A
C770        H781   1.083       .  S
C771        C780   1.368       .  A
C771        C772   1.387       .  A
C772        C773   1.398       .  A
C772        S778   1.703       .  A
C773        C774   1.399       .  A
C773        H782   1.083       .  S
C774        C777   1.365       .  A
S775        C776   1.723       .  A
C776        C777   1.383       .  A
C777        H783   1.083       .  S
S778        C779   1.721       .  A
C779        C780   1.386       .  A
C780        H784   1.083       .  S
C785        C790   1.387       .  A
C785        C786   1.406       .  A
C785        S791   1.711       .  A
C786        C787   1.406       .  A
C786        H797   1.083       .  S
C787        C796   1.376       .  A
C787        C788   1.387       .  A
C788        C789   1.399       .  A
C788        S794   1.703       .  A
C789        C790   1.400       .  A
C789        H798   1.083       .  S
C790        C793   1.369       .  A
S791        C792   1.726       .  A
C792        C793   1.385       .  A
C793        H799   1.083       .  S
S794        C795   1.722       .  A
C795        C796   1.390       .  A
C796        H800   1.083       .  S
C801        C806   1.386       .  A
C801        C802   1.402       .  A
C801        S807   1.709       .  A
C802        C803   1.403       .  A
C802        H813   1.083       .  S
C803        C812   1.370       .  A
C803        C804   1.386       .  A
C804        C805   1.407       .  A
C804        S810   1.716       .  A
C805        C806   1.408       .  A
C805        H814   1.083       .  S
C806        C809   1.376       .  A
S807        C808   1.724       .  A
C808        C809   1.391       .  A
C809        H815   1.083       .  S
S810        C811   1.726       .  A
C811        C812   1.388       .  A
C812        H816   1.083       .  S
C817        C822   1.387       .  A
C817        C818   1.399       .  A
C817        S823   1.702       .  A
C818        C819   1.399       .  A
C818        H829   1.083       .  S
C819        C828   1.367       .  A
C819        C820   1.387       .  A
C820        C821   1.404       .  A
C820        S826   1.709       .  A
C821        C822   1.404       .  A
C821        H830   1.083       .  S
C822        C825   1.374       .  A
S823        C824   1.723       .  A
C824        C825   1.387       .  A
C825        H831   1.083       .  S
S826        C827   1.724       .  A
C827        C828   1.385       .  A
C828        H832   1.083       .  S
C833        C838   1.386       .  A
C833        C834   1.406       .  A
C833        S839   1.714       .  A
C834        C835   1.407       .  A
C834        H845   1.083       .  S
C835        C844   1.376       .  A
C835        C836   1.386       .  A
C836        C837   1.407       .  A
C836        S842   1.716       .  A
C837        C838   1.408       .  A
C837        H846   1.083       .  S
C838        C841   1.377       .  A
S839        C840   1.724       .  A
C840        C841   1.392       .  A
C841        H847   1.083       .  S
S842        C843   1.726       .  A
C843        C844   1.391       .  A
C844        H848   1.083       .  S
C849        C854   1.388       .  A
C849        C850   1.402       .  A
C849        S855   1.706       .  A
C850        C851   1.402       .  A
C850        H861   1.083       .  S
C851        C860   1.373       .  A
C851        C852   1.386       .  A
C852        C853   1.404       .  A
C852        S858   1.705       .  A
C853        C854   1.403       .  A
C853        H862   1.083       .  S
C854        C857   1.374       .  A
S855        C856   1.722       .  A
C856        C857   1.385       .  A
C857        H863   1.083       .  S
S858        C859   1.729       .  A
C859        C860   1.388       .  A
C860        H864   1.079       .  S
C865        C870   1.387       .  A
C865        C866   1.403       .  A
C865        S871   1.705       .  A
C866        C867   1.403       .  A
C866        H877   1.083       .  S
C867        C876   1.374       .  A
C867        C868   1.386       .  A
C868        C869   1.406       .  A
C868        S874   1.711       .  A
C869        C870   1.406       .  A
C869        H878   1.083       .  S
C870        C873   1.378       .  A
S871        C872   1.724       .  A
C872        C873   1.388       .  A
C873        H879   1.083       .  S
S874        C875   1.726       .  A
C875        C876   1.389       .  A
C876        H880   1.083       .  S
C881        C886   1.385   1_655  A
C881        C882   1.408   1_655  A
C881        S887   1.717       .  A
C882        C883   1.410       .  A
C882        H893   1.083       .  S
C883        C892   1.379       .  A
C883        C884   1.386       .  A
C884        C885   1.405       .  A
C884        S890   1.712       .  A
C885        C886   1.406       .  A
C885        H894   1.083       .  S
C886        C889   1.374   1_455  A
S887        C888   1.729       .  A
C888        C889   1.391       .  A
C889        H895   1.083       .  S
S890        C891   1.725       .  A
C891        C892   1.392       .  A
C892        H896   1.083       .  S
C897        C902   1.386   1_455  A
C897        C898   1.406       .  A
C897        S903   1.710   1_455  A
C898        C899   1.406       .  A
C898        H909   1.083       .  S
C899        C908   1.378       .  A
C899        C900   1.386       .  A
C900        C901   1.403       .  A
C900        S906   1.705       .  A
C901        C902   1.403   1_455  A
C901        H910   1.083   1_455  S
C902        C905   1.374       .  A
S903        C904   1.725       .  A
C904        C905   1.387       .  A
C905        H911   1.083       .  S
S906        C907   1.725       .  A
C907        C908   1.391       .  A
C908        H912   1.082       .  S
C913        C918   1.386       .  A
C913        C914   1.402       .  A
C913        S919   1.707       .  A
C914        C915   1.403       .  A
C914        H925   1.083       .  S
C915        C924   1.370       .  A
C915        C916   1.389       .  A
C916        C917   1.400       .  A
C916        S922   1.707       .  A
C917        C918   1.401       .  A
C917        H926   1.083       .  S
C918        C921   1.369       .  A
S919        C920   1.724       .  A
C920        C921   1.387       .  A
C921        H927   1.083       .  S
S922        C923   1.718       .  A
C923        C924   1.383       .  A
C924        H928   1.083       .  S
C929        C934   1.386       .  A
C929        C930   1.402       .  A
C929        S935   1.711       .  A
C930        C931   1.404       .  A
C930        H941   1.083       .  S
C931        C940   1.370       .  A
C931        C932   1.387       .  A
C932        C933   1.402       .  A
C932        S938   1.710       .  A
C933        C934   1.404       .  A
C933        H942   1.083       .  S
C934        C937   1.370       .  A
S935        C936   1.721       .  A
C936        C937   1.387       .  A
C937        H943   1.083       .  S
S938        C939   1.723       .  A
C939        C940   1.387       .  A
C940        H944   1.083       .  S
C945        C950   1.388       .  A
C945        C946   1.405       .  A
C945        S951   1.712       .  A
C946        C947   1.406       .  A
C946        H957   1.083       .  S
C947        C956   1.374       .  A
C947        C948   1.387       .  A
C948        C949   1.400       .  A
C948        S954   1.706       .  A
C949        C950   1.401       .  A
C949        H958   1.083       .  S
C950        C953   1.370       .  A
S951        C952   1.721       .  A
C952        C953   1.381       .  A
C953        H959   1.083       .  S
S954        C955   1.721       .  A
C955        C956   1.389       .  A
C956        H960   1.083       .  S
C961        C966   1.386       .  A
C961        C962   1.407       .  A
C961        S967   1.717       .  A
C962        C963   1.408       .  A
C962        H973   1.083       .  S
C963        C972   1.375       .  A
C963        C964   1.386       .  A
C964        C965   1.401       .  A
C964        S970   1.710       .  A
C965        C966   1.403       .  A
C965        H974   1.083       .  S
C966        C969   1.369       .  A
S967        C968   1.726       .  A
C968        C969   1.387       .  A
C969        H975   1.083       .  S
S970        C971   1.722       .  A
C971        C972   1.391       .  A
C972        H976   1.083       .  S
C977        C982   1.387       .  A
C977        C978   1.404       .  A
C977        S983   1.706       .  A
C978        C979   1.403   1_565  A
C978        H989   1.083   1_565  S
C979        C988   1.375       .  A
C979        C980   1.387   1_545  A
C980        C981   1.406       .  A
C980        S986   1.709   1_565  A
C981        C982   1.406       .  A
C981        H990   1.083       .  S
C982        C985   1.379       .  A
S983        C984   1.726       .  A
C984        C985   1.390       .  A
C985        H991   1.083       .  S
S986        C987   1.723       .  A
C987        C988   1.387       .  A
C988        H992   1.083       .  S
C993        C998   1.386       .  A
C993        C994   1.401       .  A
C993        S999   1.708       .  A
C994        C995   1.403       .  A
C994       H1005   1.083       .  S
C995       C1004   1.370   1_565  A
C995        C996   1.384   1_565  A
C996        C997   1.410   1_545  A
C996       S1002   1.719       .  A
C997        C998   1.411       .  A
C997       H1006   1.083       .  S
C998       C1001   1.379       .  A
S999       C1000   1.723       .  A
C1000      C1001   1.392       .  A
C1001      H1007   1.083       .  S
S1002      C1003   1.730       .  A
C1003      C1004   1.390       .  A
C1004      H1008   1.083       .  S
C1009      C1014   1.388       .  A
C1009      C1010   1.401       .  A
C1009      S1015   1.707       .  A
C1010      C1011   1.403       .  A
C1010      H1021   1.083       .  S
C1011      C1020   1.370       .  A
C1011      C1012   1.385       .  A
C1012      C1013   1.403       .  A
C1012      S1018   1.707       .  A
C1013      C1014   1.404       .  A
C1013      H1022   1.083       .  S
C1014      C1017   1.372       .  A
S1015      C1016   1.722       .  A
C1016      C1017   1.385       .  A
C1017      H1023   1.083       .  S
S1018      C1019   1.728       .  A
C1019      C1020   1.389       .  A
C1020      H1024   1.076       .  S
C1025      C1030   1.388       .  A
C1025      C1026   1.400       .  A
C1025      S1031   1.709       .  A
C1026      C1027   1.402       .  A
C1026      H1037   1.083       .  S
C1027      C1036   1.367       .  A
C1027      C1028   1.387       .  A
C1028      C1029   1.403       .  A
C1028      S1034   1.712       .  A
C1029      C1030   1.405       .  A
C1029      H1038   1.083       .  S
C1030      C1033   1.370       .  A
S1031      C1032   1.718       .  A
C1032      C1033   1.385       .  A
C1033      H1039   1.083       .  S
S1034      C1035   1.724       .  A
C1035      C1036   1.384       .  A
C1036      H1040   1.083       .  S
C1041      C1046   1.386       .  A
C1041      C1042   1.395       .  A
C1041      S1047   1.696       .  A
C1042      C1043   1.396       .  A
C1042      H1053   1.083       .  S
C1043      C1052   1.366       .  A
C1043      C1044   1.386       .  A
C1044      C1045   1.412       .  A
C1044      S1050   1.719       .  A
C1045      C1046   1.412       .  A
C1045      H1054   1.083       .  S
C1046      C1049   1.383       .  A
S1047      C1048   1.722       .  A
C1048      C1049   1.395       .  A
C1049      H1055   1.082       .  S
S1050      C1051   1.731       .  A
C1051      C1052   1.381       .  A
C1052      H1056   1.083       .  S
C1057      C1062   1.387       .  A
C1057      C1058   1.401       .  A
C1057      S1063   1.709       .  A
C1058      C1059   1.403       .  A
C1058      H1069   1.083       .  S
C1059      C1068   1.371       .  A
C1059      C1060   1.386       .  A
C1060      C1061   1.407       .  A
C1060      S1066   1.716       .  A
C1061      C1062   1.408       .  A
C1061      H1070   1.083       .  S
C1062      C1065   1.376       .  A
S1063      C1064   1.721       .  A
C1064      C1065   1.391       .  A
C1065      H1071   1.083       .  S
S1066      C1067   1.725       .  A
C1067      C1068   1.387       .  A
C1068      H1072   1.083       .  S
C1073      C1078   1.387       .  A
C1073      C1074   1.405       .  A
C1073      S1079   1.708       .  A
C1074      C1075   1.404       .  A
C1074      H1085   1.083       .  S
C1075      C1084   1.376       .  A
C1075      C1076   1.387       .  A
C1076      C1077   1.407       .  A
C1076      S1082   1.711       .  A
C1077      C1078   1.406       .  A
C1077      H1086   1.083       .  S
C1078      C1081   1.378       .  A
S1079      C1080   1.724       .  A
C1080      C1081   1.390       .  A
C1081      H1087   1.082       .  S
S1082      C1083   1.724       .  A
C1083      C1084   1.388       .  A
C1084      H1088   1.083       .  S
C1089      C1094   1.388       .  A
C1089      C1090   1.401       .  A
C1089      S1095   1.709       .  A
C1090      C1091   1.402       .  A
C1090      H1101   1.083       .  S
C1091      C1100   1.369       .  A
C1091      C1092   1.388       .  A
C1092      C1093   1.401       .  A
C1092      S1098   1.707       .  A
C1093      C1094   1.402       .  A
C1093      H1102   1.083       .  S
C1094      C1097   1.369       .  A
S1095      C1096   1.718       .  A
C1096      C1097   1.383       .  A
C1097      H1103   1.083       .  S
S1098      C1099   1.724       .  A
C1099      C1100   1.384       .  A
C1100      H1104   1.083       .  S
C1105      C1110   1.386       .  A
C1105      C1106   1.406       .  A
C1105      S1111   1.712       .  A
C1106      C1107   1.406       .  A
C1106      H1117   1.083       .  S
C1107      C1116   1.377       .  A
C1107      C1108   1.386       .  A
C1108      C1109   1.404       .  A
C1108      S1114   1.709       .  A
C1109      C1110   1.405       .  A
C1109      H1118   1.083       .  S
C1110      C1113   1.375       .  A
S1111      C1112   1.722       .  A
C1112      C1113   1.388       .  A
C1113      H1119   1.083       .  S
S1114      C1115   1.725       .  A
C1115      C1116   1.389       .  A
C1116      H1120   1.083       .  S
C1121      C1126   1.386       .  A
C1121      C1122   1.405       .  A
C1121      S1127   1.715       .  A
C1122      C1123   1.407       .  A
C1122      H1133   1.083       .  S
C1123      C1132   1.373       .  A
C1123      C1124   1.386       .  A
C1124      C1125   1.403       .  A
C1124      S1130   1.712       .  A
C1125      C1126   1.404       .  A
C1125      H1134   1.083       .  S
C1126      C1129   1.371       .  A
S1127      C1128   1.724       .  A
C1128      C1129   1.388       .  A
C1129      H1135   1.083       .  S
S1130      C1131   1.723       .  A
C1131      C1132   1.390       .  A
C1132      H1136   1.083       .  S
C1137      C1142   1.386       .  A
C1137      C1138   1.401       .  A
C1137      S1143   1.707       .  A
C1138      C1139   1.402       .  A
C1138      H1149   1.083       .  S
C1139      C1148   1.370       .  A
C1139      C1140   1.385       .  A
C1140      C1141   1.411       .  A
C1140      S1146   1.720       .  A
C1141      C1142   1.412       .  A
C1141      H1150   1.083       .  S
C1142      C1145   1.382       .  A
S1143      C1144   1.723       .  A
C1144      C1145   1.395       .  A
C1145      H1151   1.083       .  S
S1146      C1147   1.728       .  A
C1147      C1148   1.388       .  A
C1148      H1152   1.083       .  S
C1153      C1158   1.387       .  A
C1153      C1154   1.402       .  A
C1153      S1159   1.711       .  A
C1154      C1155   1.404       .  A
C1154      H1165   1.083       .  S
C1155      C1164   1.371       .  A
C1155      C1156   1.386       .  A
C1156      C1157   1.404       .  A
C1156      S1162   1.713       .  A
C1157      C1158   1.405       .  A
C1157      H1166   1.083       .  S
C1158      C1161   1.372       .  A
S1159      C1160   1.722       .  A
C1160      C1161   1.388       .  A
C1161      H1167   1.083       .  S
S1162      C1163   1.723       .  A
C1163      C1164   1.387       .  A
C1164      H1168   1.083       .  S
C1169      C1174   1.387       .  A
C1169      C1170   1.398       .  A
C1169      S1175   1.704       .  A
C1170      C1171   1.399       .  A
C1170      H1181   1.083       .  S
C1171      C1180   1.366       .  A
C1171      C1172   1.387       .  A
C1172      C1173   1.400       .  A
C1172      S1178   1.706       .  A
C1173      C1174   1.402       .  A
C1173      H1182   1.083       .  S
C1174      C1177   1.368       .  A
S1175      C1176   1.721       .  A
C1176      C1177   1.386       .  A
C1177      H1183   1.083       .  S
S1178      C1179   1.723       .  A
C1179      C1180   1.384       .  A
C1180      H1184   1.083       .  S
C1185      C1190   1.387       .  A
C1185      C1186   1.401       .  A
C1185      S1191   1.706       .  A
C1186      C1187   1.401       .  A
C1186      H1197   1.083       .  S
C1187      C1196   1.370       .  A
C1187      C1188   1.386       .  A
C1188      C1189   1.405       .  A
C1188      S1194   1.711       .  A
C1189      C1190   1.406       .  A
C1189      H1198   1.083       .  S
C1190      C1193   1.374       .  A
S1191      C1192   1.723       .  A
C1192      C1193   1.390       .  A
C1193      H1199   1.083       .  S
S1194      C1195   1.726       .  A
C1195      C1196   1.386       .  A
C1196      H1200   1.083       .  S
C1201      C1206   1.387       .  A
C1201      C1202   1.401       .  A
C1201      S1207   1.707       .  A
C1202      C1203   1.402       .  A
C1202      H1213   1.083       .  S
C1203      C1212   1.371       .  A
C1203      C1204   1.386       .  A
C1204      C1205   1.408       .  A
C1204      S1210   1.717       .  A
C1205      C1206   1.409       .  A
C1205      H1214   1.083       .  S
C1206      C1209   1.378       .  A
S1207      C1208   1.723       .  A
C1208      C1209   1.392       .  A
C1209      H1215   1.083       .  S
S1210      C1211   1.726       .  A
C1211      C1212   1.386       .  A
C1212      H1216   1.083       .  S
C1217      C1222   1.387       .  A
C1217      C1218   1.402       .  A
C1217      S1223   1.707       .  A
C1218      C1219   1.402       .  A
C1218      H1229   1.083       .  S
C1219      C1228   1.371       .  A
C1219      C1220   1.387       .  A
C1220      C1221   1.404       .  A
C1220      S1226   1.710       .  A
C1221      C1222   1.405       .  A
C1221      H1230   1.083       .  S
C1222      C1225   1.374       .  A
S1223      C1224   1.723       .  A
C1224      C1225   1.389       .  A
C1225      H1231   1.083       .  S
S1226      C1227   1.725       .  A
C1227      C1228   1.387       .  A
C1228      H1232   1.083       .  S
C1233      C1238   1.386       .  A
C1233      C1234   1.403       .  A
C1233      S1239   1.711       .  A
C1234      C1235   1.404       .  A
C1234      H1245   1.083       .  S
C1235      C1244   1.372       .  A
C1235      C1236   1.386       .  A
C1236      C1237   1.403       .  A
C1236      S1242   1.711       .  A
C1237      C1238   1.404       .  A
C1237      H1246   1.083       .  S
C1238      C1241   1.371       .  A
S1239      C1240   1.724       .  A
C1240      C1241   1.389       .  A
C1241      H1247   1.083       .  S
S1242      C1243   1.725       .  A
C1243      C1244   1.388       .  A
C1244      H1248   1.083       .  S
C1249      C1254   1.387       .  A
C1249      C1250   1.402       .  A
C1249      S1255   1.705       .  A
C1250      C1251   1.402       .  A
C1250      H1261   1.083       .  S
C1251      C1260   1.373       .  A
C1251      C1252   1.387       .  A
C1252      C1253   1.406       .  A
C1252      S1258   1.709       .  A
C1253      C1254   1.405       .  A
C1253      H1262   1.083       .  S
C1254      C1257   1.377       .  A
S1255      C1256   1.725       .  A
C1256      C1257   1.390       .  A
C1257      H1263   1.083       .  S
S1258      C1259   1.723       .  A
C1259      C1260   1.385       .  A
C1260      H1264   1.083       .  S
C1265      C1270   1.386       .  A
C1265      C1266   1.400       .  A
C1265      S1271   1.706       .  A
C1266      C1267   1.401       .  A
C1266      H1277   1.083       .  S
C1267      C1276   1.370       .  A
C1267      C1268   1.385       .  A
C1268      C1269   1.412       .  A
C1268      S1274   1.721       .  A
C1269      C1270   1.413       .  A
C1269      H1278   1.083       .  S
C1270      C1273   1.383       .  A
S1271      C1272   1.723       .  A
C1272      C1273   1.395       .  A
C1273      H1279   1.083       .  S
S1274      C1275   1.728       .  A
C1275      C1276   1.387       .  A
C1276      H1280   1.083       .  S
C1281      C1286   1.386       .  A
C1281      C1282   1.405       .  A
C1281      S1287   1.713       .  A
C1282      C1283   1.406       .  A
C1282      H1293   1.083       .  S
C1283      C1292   1.374       .  A
C1283      C1284   1.386       .  A
C1284      C1285   1.407       .  A
C1284      S1290   1.717       .  A
C1285      C1286   1.408       .  A
C1285      H1294   1.083       .  S
C1286      C1289   1.377       .  A
S1287      C1288   1.726       .  A
C1288      C1289   1.391       .  A
C1289      H1295   1.083       .  S
S1290      C1291   1.724       .  A
C1291      C1292   1.389       .  A
C1292      H1296   1.083       .  S
C1297      C1302   1.387       .  A
C1297      C1298   1.403       .  A
C1297      S1303   1.706       .  A
C1298      C1299   1.403       .  A
C1298      H1309   1.083       .  S
C1299      C1308   1.374       .  A
C1299      C1300   1.387       .  A
C1300      C1301   1.402       .  A
C1300      S1306   1.705       .  A
C1301      C1302   1.402       .  A
C1301      H1310   1.083       .  S
C1302      C1305   1.373       .  A
S1303      C1304   1.725       .  A
C1304      C1305   1.387       .  A
C1305      H1311   1.083       .  S
S1306      C1307   1.724       .  A
C1307      C1308   1.387       .  A
C1308      H1312   1.083       .  S
C1313      C1318   1.387       .  A
C1313      C1314   1.404       .  A
C1313      S1319   1.709       .  A
C1314      C1315   1.405       .  A
C1314      H1325   1.083       .  S
C1315      C1324   1.375       .  A
C1315      C1316   1.387       .  A
C1316      C1317   1.402       .  A
C1316      S1322   1.706       .  A
C1317      C1318   1.402       .  A
C1317      H1326   1.083       .  S
C1318      C1321   1.372       .  A
S1319      C1320   1.725       .  A
C1320      C1321   1.387       .  A
C1321      H1327   1.083       .  S
S1322      C1323   1.724       .  A
C1323      C1324   1.389       .  A
C1324      H1328   1.083       .  S
C1329      C1334   1.386       .  A
C1329      C1330   1.406       .  A
C1329      S1335   1.714       .  A
C1330      C1331   1.407       .  A
C1330      H1341   1.083       .  S
C1331      C1340   1.375       .  A
C1331      C1332   1.386       .  A
C1332      C1333   1.406       .  A
C1332      S1338   1.715       .  A
C1333      C1334   1.407       .  A
C1333      H1342   1.083       .  S
C1334      C1337   1.376       .  A
S1335      C1336   1.725       .  A
C1336      C1337   1.390       .  A
C1337      H1343   1.083       .  S
S1338      C1339   1.725       .  A
C1339      C1340   1.391       .  A
C1340      H1344   1.083       .  S
C1345      C1350   1.387       .  A
C1345      C1346   1.400       .  A
C1345      S1351   1.709       .  A
C1346      C1347   1.402       .  A
C1346      H1357   1.083       .  S
C1347      C1356   1.367       .  A
C1347      C1348   1.387       .  A
C1348      C1349   1.400       .  A
C1348      S1354   1.709       .  A
C1349      C1350   1.402       .  A
C1349      H1358   1.083       .  S
C1350      C1353   1.366       .  A
S1351      C1352   1.723       .  A
C1352      C1353   1.385       .  A
C1353      H1359   1.083       .  S
S1354      C1355   1.723       .  A
C1355      C1356   1.387       .  A
C1356      H1360   1.083       .  S
C1361      C1366   1.387       .  A
C1361      C1362   1.403       .  A
C1361      S1367   1.707       .  A
C1362      C1363   1.403       .  A
C1362      H1373   1.083       .  S
C1363      C1372   1.374       .  A
C1363      C1364   1.387       .  A
C1364      C1365   1.402       .  A
C1364      S1370   1.705       .  A
C1365      C1366   1.402       .  A
C1365      H1374   1.083       .  S
C1366      C1369   1.373       .  A
S1367      C1368   1.724       .  A
C1368      C1369   1.388       .  A
C1369      H1375   1.083       .  S
S1370      C1371   1.724       .  A
C1371      C1372   1.387       .  A
C1372      H1376   1.083       .  S
C1377      C1382   1.386       .  A
C1377      C1378   1.403       .  A
C1377      S1383   1.706       .  A
C1378      C1379   1.404       .  A
C1378      H1389   1.083       .  S
C1379      C1388   1.373       .  A
C1379      C1380   1.388       .  A
C1380      C1381   1.400       .  A
C1380      S1386   1.705       .  A
C1381      C1382   1.401       .  A
C1381      H1390   1.083       .  S
C1382      C1385   1.370       .  A
S1383      C1384   1.728       .  A
C1384      C1385   1.387       .  A
C1385      H1391   1.080       .  S
S1386      C1387   1.720       .  A
C1387      C1388   1.385       .  A
C1388      H1392   1.083       .  S
C1393      C1398   1.385       .  A
C1393      C1394   1.408       .  A
C1393      S1399   1.716       .  A
C1394      C1395   1.409       .  A
C1394      H1405   1.083       .  S
C1395      C1404   1.378       .  A
C1395      C1396   1.387       .  A
C1396      C1397   1.402       .  A
C1396      S1402   1.708       .  A
C1397      C1398   1.403       .  A
C1397      H1406   1.083       .  S
C1398      C1401   1.370       .  A
S1399      C1400   1.728       .  A
C1400      C1401   1.390       .  A
C1401      H1407   1.083       .  S
S1402      C1403   1.721       .  A
C1403      C1404   1.389       .  A
C1404      H1408   1.083       .  S
C1409      C1414   1.387       .  A
C1409      C1410   1.406       .  A
C1409      S1415   1.708       .  A
C1410      C1411   1.405       .  A
C1410      H1421   1.083       .  S
C1411      C1420   1.378       .  A
C1411      C1412   1.386       .  A
C1412      C1413   1.405       .  A
C1412      S1418   1.707       .  A
C1413      C1414   1.404       .  A
C1413      H1422   1.083       .  S
C1414      C1417   1.377       .  A
S1415      C1416   1.725       .  A
C1416      C1417   1.386       .  A
C1417      H1423   1.083       .  S
S1418      C1419   1.726       .  A
C1419      C1420   1.390       .  A
C1420      H1424   1.083       .  S
C1425      C1430   1.386       .  A
C1425      C1426   1.408       .  A
C1425      S1431   1.715       .  A
C1426      C1427   1.409       .  A
C1426      H1437   1.083       .  S
C1427      C1436   1.378       .  A
C1427      C1428   1.387       .  A
C1428      C1429   1.402       .  A
C1428      S1434   1.707       .  A
C1429      C1430   1.403       .  A
C1429      H1438   1.083       .  S
C1430      C1433   1.372       .  A
S1431      C1432   1.727       .  A
C1432      C1433   1.388       .  A
C1433      H1439   1.083       .  S
S1434      C1435   1.721       .  A
C1435      C1436   1.390       .  A
C1436      H1440   1.083       .  S
C1441      C1446   1.386       .  A
C1441      C1442   1.402       .  A
C1441      S1447   1.705       .  A
C1442      C1443   1.402       .  A
C1442      H1453   1.083       .  S
C1443      C1452   1.372       .  A
C1443      C1444   1.388       .  A
C1444      C1445   1.403       .  A
C1444      S1450   1.709       .  A
C1445      C1446   1.404       .  A
C1445      H1454   1.083       .  S
C1446      C1449   1.373       .  A
S1447      C1448   1.722       .  A
C1448      C1449   1.388       .  A
C1449      H1455   1.081       .  S
S1450      C1451   1.721       .  A
C1451      C1452   1.384       .  A
C1452      H1456   1.083       .  S
C1457      C1462   1.386       .  A
C1457      C1458   1.407       .  A
C1457      S1463   1.713       .  A
C1458      C1459   1.407       .  A
C1458      H1469   1.083       .  S
C1459      C1468   1.377       .  A
C1459      C1460   1.386       .  A
C1460      C1461   1.402       .  A
C1460      S1466   1.708       .  A
C1461      C1462   1.403       .  A
C1461      H1470   1.083       .  S
C1462      C1465   1.372       .  A
S1463      C1464   1.725       .  A
C1464      C1465   1.387       .  A
C1465      H1471   1.083       .  S
S1466      C1467   1.724       .  A
C1467      C1468   1.391       .  A
C1468      H1472   1.083       .  S
C1473      C1478   1.387       .  A
C1473      C1474   1.402       .  A
C1473      S1479   1.713       .  A
C1474      C1475   1.404       .  A
C1474      H1485   1.083       .  S
C1475      C1484   1.371       .  A
C1475      C1476   1.386       .  A
C1476      C1477   1.405       .  A
C1476      S1482   1.714       .  A
C1477      C1478   1.407       .  A
C1477      H1486   1.083       .  S
C1478      C1481   1.372       .  A
S1479      C1480   1.720       .  A
C1480      C1481   1.389       .  A
C1481      H1487   1.083       .  S
S1482      C1483   1.725       .  A
C1483      C1484   1.388       .  A
C1484      H1488   1.083       .  S
C1489      C1494   1.386       .  A
C1489      C1490   1.402       .  A
C1489      S1495   1.709       .  A
C1490      C1491   1.403       .  A
C1490      H1501   1.083       .  S
C1491      C1500   1.371       .  A
C1491      C1492   1.386       .  A
C1492      C1493   1.407       .  A
C1492      S1498   1.716       .  A
C1493      C1494   1.408       .  A
C1493      H1502   1.083       .  S
C1494      C1497   1.378       .  A
S1495      C1496   1.724       .  A
C1496      C1497   1.391       .  A
C1497      H1503   1.083       .  S
S1498      C1499   1.725       .  A
C1499      C1500   1.388       .  A
C1500      H1504   1.083       .  S
C1505      C1510   1.387       .  A
C1505      C1506   1.404       .  A
C1505      S1511   1.708       .  A
C1506      C1507   1.404       .  A
C1506      H1517   1.083       .  S
C1507      C1516   1.375       .  A
C1507      C1508   1.386       .  A
C1508      C1509   1.405       .  A
C1508      S1514   1.709       .  A
C1509      C1510   1.404       .  A
C1509      H1518   1.083       .  S
C1510      C1513   1.375       .  A
S1511      C1512   1.725       .  A
C1512      C1513   1.388       .  A
C1513      H1519   1.083       .  S
S1514      C1515   1.726       .  A
C1515      C1516   1.389       .  A
C1516      H1520   1.083       .  S
C1521      C1526   1.387       .  A
C1521      C1522   1.403       .  A
C1521      S1527   1.706       .  A
C1522      C1523   1.403       .  A
C1522      H1533   1.083       .  S
C1523      C1532   1.372       .  A
C1523      C1524   1.388       .  A
C1524      C1525   1.396       .  A
C1524      S1530   1.697       .  A
C1525      C1526   1.396       .  A
C1525      H1534   1.083       .  S
C1526      C1529   1.365       .  A
S1527      C1528   1.725       .  A
C1528      C1529   1.382       .  A
C1529      H1535   1.083       .  S
S1530      C1531   1.720       .  A
C1531      C1532   1.386       .  A
C1532      H1536   1.083       .  S
C1537      C1542   1.386       .  A
C1537      C1538   1.402       .  A
C1537      S1543   1.710       .  A
C1538      C1539   1.404       .  A
C1538      H1549   1.083       .  S
C1539      C1548   1.372       .  A
C1539      C1540   1.386       .  A
C1540      C1541   1.404       .  A
C1540      S1546   1.712       .  A
C1541      C1542   1.405       .  A
C1541      H1550   1.083       .  S
C1542      C1545   1.373       .  A
S1543      C1544   1.723       .  A
C1544      C1545   1.390       .  A
C1545      H1551   1.083       .  S
S1546      C1547   1.725       .  A
C1547      C1548   1.388       .  A
C1548      H1552   1.083       .  S
C1553      C1558   1.387       .  A
C1553      C1554   1.401       .  A
C1553      S1559   1.706       .  A
C1554      C1555   1.402       .  A
C1554      H1565   1.083       .  S
C1555      C1564   1.370       .  A
C1555      C1556   1.387       .  A
C1556      C1557   1.403       .  A
C1556      S1562   1.708       .  A
C1557      C1558   1.403       .  A
C1557      H1566   1.083       .  S
C1558      C1561   1.372       .  A
S1559      C1560   1.724       .  A
C1560      C1561   1.387       .  A
C1561      H1567   1.083       .  S
S1562      C1563   1.724       .  A
C1563      C1564   1.387       .  A
C1564      H1568   1.083       .  S
C1569      C1574   1.386       .  A
C1569      C1570   1.401       .  A
C1569      S1575   1.710       .  A
C1570      C1571   1.403       .  A
C1570      H1581   1.083       .  S
C1571      C1580   1.370       .  A
C1571      C1572   1.386       .  A
C1572      C1573   1.408       .  A
C1572      S1578   1.718       .  A
C1573      C1574   1.410       .  A
C1573      H1582   1.083       .  S
C1574      C1577   1.377       .  A
S1575      C1576   1.723       .  A
C1576      C1577   1.392       .  A
C1577      H1583   1.083       .  S
S1578      C1579   1.726       .  A
C1579      C1580   1.388       .  A
C1580      H1584   1.083       .  S
C1585      C1590   1.385       .  A
C1585      C1586   1.402       .  A
C1585      S1591   1.706       .  A
C1586      C1587   1.403       .  A
C1586      H1597   1.083       .  S
C1587      C1596   1.371       .  A
C1587      C1588   1.388       .  A
C1588      C1589   1.403       .  A
C1588      S1594   1.710       .  A
C1589      C1590   1.404       .  A
C1589      H1598   1.083       .  S
C1590      C1593   1.371       .  A
S1591      C1592   1.727       .  A
C1592      C1593   1.391       .  A
C1593      H1599   1.082       .  S
S1594      C1595   1.722       .  A
C1595      C1596   1.386       .  A
C1596      H1600   1.083       .  S
C1601      C1606   1.387       .  A
C1601      C1602   1.401       .  A
C1601      S1607   1.708       .  A
C1602      C1603   1.403       .  A
C1602      H1613   1.083       .  S
C1603      C1612   1.370       .  A
C1603      C1604   1.386       .  A
C1604      C1605   1.403       .  A
C1604      S1610   1.711       .  A
C1605      C1606   1.404       .  A
C1605      H1614   1.083       .  S
C1606      C1609   1.371       .  A
S1607      C1608   1.721       .  A
C1608      C1609   1.386       .  A
C1609      H1615   1.083       .  S
S1610      C1611   1.724       .  A
C1611      C1612   1.387       .  A
C1612      H1616   1.083       .  S
C1617      C1622   1.386       .  A
C1617      C1618   1.401       .  A
C1617      S1623   1.708       .  A
C1618      C1619   1.403   1_556  A
C1618      H1629   1.083       .  S
C1619      C1628   1.370       .  A
C1619      C1620   1.385       .  A
C1620      C1621   1.407       .  A
C1620      S1626   1.716       .  A
C1621      C1622   1.408   1_554  A
C1621      H1630   1.083       .  S
C1622      C1625   1.377       .  A
S1623      C1624   1.722       .  A
C1624      C1625   1.389       .  A
C1625      H1631   1.083       .  S
S1626      C1627   1.728       .  A
C1627      C1628   1.389       .  A
C1628      H1632   1.083       .  S
C1633      C1638   1.386       .  A
C1633      C1634   1.404       .  A
C1633      S1639   1.711       .  A
C1634      C1635   1.405       .  A
C1634      H1645   1.083       .  S
C1635      C1644   1.374       .  A
C1635      C1636   1.386       .  A
C1636      C1637   1.403       .  A
C1636      S1642   1.709       .  A
C1637      C1638   1.404       .  A
C1637      H1646   1.083       .  S
C1638      C1641   1.372       .  A
S1639      C1640   1.724       .  A
C1640      C1641   1.386       .  A
C1641      H1647   1.083       .  S
S1642      C1643   1.725       .  A
C1643      C1644   1.390       .  A
C1644      H1648   1.083       .  S
C1649      C1654   1.385       .  A
C1649      C1650   1.403       .  A
C1649      S1655   1.709       .  A
C1650      C1651   1.404   1_556  A
C1650      H1661   1.083       .  S
C1651      C1660   1.373       .  A
C1651      C1652   1.388       .  A
C1652      C1653   1.401       .  A
C1652      S1658   1.707       .  A
C1653      C1654   1.403   1_554  A
C1653      H1662   1.083       .  S
C1654      C1657   1.369       .  A
S1655      C1656   1.726       .  A
C1656      C1657   1.390       .  A
C1657      H1663   1.083       .  S
S1658      C1659   1.720       .  A
C1659      C1660   1.384       .  A
C1660      H1664   1.083       .  S
C1665      C1670   1.388       .  A
C1665      C1666   1.403       .  A
C1665      S1671   1.710       .  A
C1666      C1667   1.404       .  A
C1666      H1677   1.083       .  S
C1667      C1676   1.373       .  A
C1667      C1668   1.385       .  A
C1668      C1669   1.404       .  A
C1668      S1674   1.707       .  A
C1669      C1670   1.404       .  A
C1669      H1678   1.083       .  S
C1670      C1673   1.373       .  A
S1671      C1672   1.723       .  A
C1672      C1673   1.386       .  A
C1673      H1679   1.083       .  S
S1674      C1675   1.728       .  A
C1675      C1676   1.391       .  A
C1676      H1680   1.077       .  S
C1681      C1686   1.387       .  A
C1681      C1682   1.401       .  A
C1681      S1687   1.703       .  A
C1682      C1683   1.401       .  A
C1682      H1693   1.083       .  S
C1683      C1692   1.371       .  A
C1683      C1684   1.386       .  A
C1684      C1685   1.405       .  A
C1684      S1690   1.711       .  A
C1685      C1686   1.405       .  A
C1685      H1694   1.083       .  S
C1686      C1689   1.376       .  A
S1687      C1688   1.723       .  A
C1688      C1689   1.387       .  A
C1689      H1695   1.083       .  S
S1690      C1691   1.725       .  A
C1691      C1692   1.388       .  A
C1692      H1696   1.083       .  S
C1697      C1702   1.386       .  A
C1697      C1698   1.405       .  A
C1697      S1703   1.713       .  A
C1698      C1699   1.406       .  A
C1698      H1709   1.083       .  S
C1699      C1708   1.374       .  A
C1699      C1700   1.387       .  A
C1700      C1701   1.403       .  A
C1700      S1706   1.712       .  A
C1701      C1702   1.405       .  A
C1701      H1710   1.083       .  S
C1702      C1705   1.372       .  A
S1703      C1704   1.724       .  A
C1704      C1705   1.388       .  A
C1705      H1711   1.083       .  S
S1706      C1707   1.723       .  A
C1707      C1708   1.389       .  A
C1708      H1712   1.083       .  S
C1713      C1718   1.387       .  A
C1713      C1714   1.403       .  A
C1713      S1719   1.706       .  A
C1714      C1715   1.403       .  A
C1714      H1725   1.083       .  S
C1715      C1724   1.372       .  A
C1715      C1716   1.389       .  A
C1716      C1717   1.401       .  A
C1716      S1722   1.706       .  A
C1717      C1718   1.401       .  A
C1717      H1726   1.083       .  S
C1718      C1721   1.371       .  A
S1719      C1720   1.725       .  A
C1720      C1721   1.386       .  A
C1721      H1727   1.080       .  S
S1722      C1723   1.720       .  A
C1723      C1724   1.383       .  A
C1724      H1728   1.082       .  S
C1729      C1734   1.386       .  A
C1729      C1730   1.404       .  A
C1729      S1735   1.712       .  A
C1730      C1731   1.405       .  A
C1730      H1741   1.083       .  S
C1731      C1740   1.373       .  A
C1731      C1732   1.386       .  A
C1732      C1733   1.407       .  A
C1732      S1738   1.716       .  A
C1733      C1734   1.408       .  A
C1733      H1742   1.083       .  S
C1734      C1737   1.377       .  A
S1735      C1736   1.724       .  A
C1736      C1737   1.391       .  A
C1737      H1743   1.083       .  S
S1738      C1739   1.725       .  A
C1739      C1740   1.390       .  A
C1740      H1744   1.083       .  S
C1745      C1750   1.387       .  A
C1745      C1746   1.402       .  A
C1745      S1751   1.707       .  A
C1746      C1747   1.403   1_655  A
C1746      H1757   1.083       .  S
C1747      C1756   1.372       .  A
C1747      C1748   1.385       .  A
C1748      C1749   1.406       .  A
C1748      S1754   1.711       .  A
C1749      C1750   1.407   1_455  A
C1749      H1758   1.083       .  S
C1750      C1753   1.377       .  A
S1751      C1752   1.722       .  A
C1752      C1753   1.388       .  A
C1753      H1759   1.083       .  S
S1754      C1755   1.728       .  A
C1755      C1756   1.390       .  A
C1756      H1760   1.082       .  S
C1761      C1766   1.386   1_455  A
C1761      C1762   1.405       .  A
C1761      S1767   1.708   1_455  A
C1762      C1763   1.405       .  A
C1762      H1773   1.083       .  S
C1763      C1772   1.377       .  A
C1763      C1764   1.386       .  A
C1764      C1765   1.407   1_455  A
C1764      S1770   1.710       .  A
C1765      C1766   1.406       .  A
C1765      H1774   1.083       .  S
C1766      C1769   1.379       .  A
S1767      C1768   1.726       .  A
C1768      C1769   1.390       .  A
C1769      H1775   1.083       .  S
S1770      C1771   1.725       .  A
C1771      C1772   1.389       .  A
C1772      H1776   1.083       .  S
C1777      C1782   1.388       .  A
C1777      C1778   1.400       .  A
C1777      S1783   1.704       .  A
C1778      C1779   1.401       .  A
C1778      H1789   1.080       .  S
C1779      C1788   1.372       .  A
C1779      C1780   1.383       .  A
C1780      C1781   1.407       .  A
C1780      S1786   1.709       .  A
C1781      C1782   1.407       .  A
C1781      H1790   1.083       .  S
C1782      C1785   1.377       .  A
S1783      C1784   1.720       .  A
C1784      C1785   1.388       .  A
C1785      H1791   1.082       .  S
S1786      C1787   1.731       .  A
C1787      C1788   1.392       .  A
C1788      H1792   1.065       .  S
C1793      C1798   1.387       .  A
C1793      C1794   1.405       .  A
C1793      S1799   1.709       .  A
C1794      C1795   1.405       .  A
C1794      H1805   1.083       .  S
C1795      C1804   1.375       .  A
C1795      C1796   1.389       .  A
C1796      C1797   1.401       .  A
C1796      S1802   1.705       .  A
C1797      C1798   1.401       .  A
C1797      H1806   1.083       .  S
C1798      C1801   1.371       .  A
S1799      C1800   1.725       .  A
C1800      C1801   1.386       .  A
C1801      H1807   1.080       .  S
S1802      C1803   1.719       .  A
C1803      C1804   1.385       .  A
C1804      H1808   1.082       .  S
C1809      C1814   1.386       .  A
C1809      C1810   1.401       .  A
C1809      S1815   1.708       .  A
C1810      C1811   1.402       .  A
C1810      H1821   1.083       .  S
C1811      C1820   1.370       .  A
C1811      C1812   1.383       .  A
C1812      C1813   1.413       .  A
C1812      S1818   1.722       .  A
C1813      C1814   1.414       .  A
C1813      H1822   1.083       .  S
C1814      C1817   1.383       .  A
S1815      C1816   1.721       .  A
C1816      C1817   1.394       .  A
C1817      H1823   1.083       .  S
S1818      C1819   1.734       .  A
C1819      C1820   1.392       .  A
C1820      H1824   1.081       .  S
C1825      C1830   1.385       .  A
C1825      C1826   1.410       .  A
C1825      S1831   1.719       .  A
C1826      C1827   1.411       .  A
C1826      H1837   1.083       .  S
C1827      C1836   1.382       .  A
C1827      C1828   1.386       .  A
C1828      C1829   1.408       .  A
C1828      S1834   1.717       .  A
C1829      C1830   1.409       .  A
C1829      H1838   1.083       .  S
C1830      C1833   1.379       .  A
S1831      C1832   1.727       .  A
C1832      C1833   1.392       .  A
C1833      H1839   1.083       .  S
S1834      C1835   1.727       .  A
C1835      C1836   1.394       .  A
C1836      H1840   1.083       .  S
C1841      C1846   1.386       .  A
C1841      C1842   1.408       .  A
C1841      S1847   1.716       .  A
C1842      C1843   1.409       .  A
C1842      H1853   1.083       .  S
C1843      C1852   1.377       .  A
C1843      C1844   1.387       .  A
C1844      C1845   1.399       .  A
C1844      S1850   1.705       .  A
C1845      C1846   1.400       .  A
C1845      H1854   1.083       .  S
C1846      C1849   1.368       .  A
S1847      C1848   1.728       .  A
C1848      C1849   1.386       .  A
C1849      H1855   1.083       .  S
S1850      C1851   1.719       .  A
C1851      C1852   1.389       .  A
C1852      H1856   1.083       .  S
C1857      C1862   1.388       .  A
C1857      C1858   1.402       .  A
C1857      S1863   1.708       .  A
C1858      C1859   1.403       .  A
C1858      H1869   1.083       .  S
C1859      C1868   1.370       .  A
C1859      C1860   1.386       .  A
C1860      C1861   1.401       .  A
C1860      S1866   1.705       .  A
C1861      C1862   1.402       .  A
C1861      H1870   1.083       .  S
C1862      C1865   1.370       .  A
S1863      C1864   1.721       .  A
C1864      C1865   1.383       .  A
C1865      H1871   1.083       .  S
S1866      C1867   1.726       .  A
C1867      C1868   1.389       .  A
C1868      H1872   1.079       .  S
C1873      C1878   1.387       .  A
C1873      C1874   1.400       .  A
C1873      S1879   1.703       .  A
C1874      C1875   1.400       .  A
C1874      H1885   1.083       .  S
C1875      C1884   1.370       .  A
C1875      C1876   1.386       .  A
C1876      C1877   1.407       .  A
C1876      S1882   1.713       .  A
C1877      C1878   1.408       .  A
C1877      H1886   1.083       .  S
C1878      C1881   1.378       .  A
S1879      C1880   1.720       .  A
C1880      C1881   1.388       .  A
C1881      H1887   1.083       .  S
S1882      C1883   1.727       .  A
C1883      C1884   1.386       .  A
C1884      H1888   1.083       .  S
C1889      C1894   1.386       .  A
C1889      C1890   1.405       .  A
C1889      S1895   1.712       .  A
C1890      C1891   1.406       .  A
C1890      H1901   1.083       .  S
C1891      C1900   1.376       .  A
C1891      C1892   1.386       .  A
C1892      C1893   1.402       .  A
C1892      S1898   1.707       .  A
C1893      C1894   1.403       .  A
C1893      H1902   1.083       .  S
C1894      C1897   1.371       .  A
S1895      C1896   1.724       .  A
C1896      C1897   1.387       .  A
C1897      H1903   1.083       .  S
S1898      C1899   1.725       .  A
C1899      C1900   1.389       .  A
C1900      H1904   1.083       .  S
C1905      C1910   1.386       .  A
C1905      C1906   1.404       .  A
C1905      S1911   1.712       .  A
C1906      C1907   1.405       .  A
C1906      H1917   1.083       .  S
C1907      C1916   1.373       .  A
C1907      C1908   1.386       .  A
C1908      C1909   1.405       .  A
C1908      S1914   1.713       .  A
C1909      C1910   1.407       .  A
C1909      H1918   1.083       .  S
C1910      C1913   1.375       .  A
S1911      C1912   1.722       .  A
C1912      C1913   1.390       .  A
C1913      H1919   1.083       .  S
S1914      C1915   1.725       .  A
C1915      C1916   1.387       .  A
C1916      H1920   1.083       .  S
C1921      C1926   1.387       .  A
C1921      C1922   1.397       .  A
C1921      S1927   1.703       .  A
C1922      C1923   1.399       .  A
C1922      H1933   1.083       .  S
C1923      C1932   1.367       .  A
C1923      C1924   1.385       .  A
C1924      C1925   1.411       .  A
C1924      S1930   1.721       .  A
C1925      C1926   1.412       .  A
C1925      H1934   1.083       .  S
C1926      C1929   1.380       .  A
S1927      C1928   1.720       .  A
C1928      C1929   1.393       .  A
C1929      H1935   1.083       .  S
S1930      C1931   1.729       .  A
C1931      C1932   1.387       .  A
C1932      H1936   1.083       .  S
C1937      C1942   1.387       .  A
C1937      C1938   1.403       .  A
C1937      S1943   1.708       .  A
C1938      C1939   1.404       .  A
C1938      H1949   1.083       .  S
C1939      C1948   1.373       .  A
C1939      C1940   1.387       .  A
C1940      C1941   1.398       .  A
C1940      S1946   1.700       .  A
C1941      C1942   1.399       .  A
C1941      H1950   1.083       .  S
C1942      C1945   1.367       .  A
S1943      C1944   1.724       .  A
C1944      C1945   1.385       .  A
C1945      H1951   1.083       .  S
S1946      C1947   1.722       .  A
C1947      C1948   1.387       .  A
C1948      H1952   1.083       .  S
C1953      C1958   1.388       .  A
C1953      C1954   1.394       .  A
C1953      S1959   1.696       .  A
C1954      C1955   1.395       .  A
C1954      H1965   1.083       .  S
C1955      C1964   1.362       .  A
C1955      C1956   1.386       .  A
C1956      C1957   1.406       .  A
C1956      S1962   1.712       .  A
C1957      C1958   1.407       .  A
C1957      H1966   1.083       .  S
C1958      C1961   1.375       .  A
S1959      C1960   1.719       .  A
C1960      C1961   1.389       .  A
C1961      H1967   1.083       .  S
S1962      C1963   1.726       .  A
C1963      C1964   1.382       .  A
C1964      H1968   1.083       .  S
C1969      C1974   1.386       .  A
C1969      C1970   1.403       .  A
C1969      S1975   1.713       .  A
C1970      C1971   1.404       .  A
C1970      H1981   1.083       .  S
C1971      C1980   1.372       .  A
C1971      C1972   1.386       .  A
C1972      C1973   1.406       .  A
C1972      S1978   1.714       .  A
C1973      C1974   1.407       .  A
C1973      H1982   1.083       .  S
C1974      C1977   1.375       .  A
S1975      C1976   1.723       .  A
C1976      C1977   1.390       .  A
C1977      H1983   1.083       .  S
S1978      C1979   1.724       .  A
C1979      C1980   1.387       .  A
C1980      H1984   1.083       .  S
C1985      C1990   1.387       .  A
C1985      C1986   1.399       .  A
C1985      S1991   1.705       .  A
C1986      C1987   1.400       .  A
C1986      H1997   1.083       .  S
C1987      C1996   1.367       .  A
C1987      C1988   1.387       .  A
C1988      C1989   1.402       .  A
C1988      S1994   1.708       .  A
C1989      C1990   1.403       .  A
C1989      H1998   1.083       .  S
C1990      C1993   1.370       .  A
S1991      C1992   1.721       .  A
C1992      C1993   1.388       .  A
C1993      H1999   1.083       .  S
S1994      C1995   1.724       .  A
C1995      C1996   1.385       .  A
C1996      H2000   1.083       .  S
C2001      C2006   1.387       .  A
C2001      C2002   1.407       .  A
C2001      S2007   1.710       .  A
C2002      C2003   1.407       .  A
C2002      H2013   1.083       .  S
C2003      C2012   1.378       .  A
C2003      C2004   1.387       .  A
C2004      C2005   1.399       .  A
C2004      S2010   1.700       .  A
C2005      C2006   1.399       .  A
C2005      H2014   1.083       .  S
C2006      C2009   1.370       .  A
S2007      C2008   1.727       .  A
C2008      C2009   1.385       .  A
C2009      H2015   1.083       .  S
S2010      C2011   1.723       .  A
C2011      C2012   1.390       .  A
C2012      H2016   1.083       .  S
C2017      C2022   1.387       .  A
C2017      C2018   1.400       .  A
C2017      S2023   1.702       .  A
C2018      C2019   1.400       .  A
C2018      H2029   1.083       .  S
C2019      C2028   1.370       .  A
C2019      C2020   1.386       .  A
C2020      C2021   1.405       .  A
C2020      S2026   1.709       .  A
C2021      C2022   1.405       .  A
C2021      H2030   1.083       .  S
C2022      C2025   1.376       .  A
S2023      C2024   1.722       .  A
C2024      C2025   1.387       .  A
C2025      H2031   1.083       .  S
S2026      C2027   1.726       .  A
C2027      C2028   1.386       .  A
C2028      H2032   1.083       .  S
C2033      C2038   1.385       .  A
C2033      C2034   1.402       .  A
C2033      S2039   1.704       .  A
C2034      C2035   1.403       .  A
C2034      H2045   1.083       .  S
C2035      C2044   1.372       .  A
C2035      C2036   1.388       .  A
C2036      C2037   1.404       .  A
C2036      S2042   1.710       .  A
C2037      C2038   1.404       .  A
C2037      H2046   1.083       .  S
C2038      C2041   1.374       .  A
S2039      C2040   1.728       .  A
C2040      C2041   1.391       .  A
C2041      H2047   1.082       .  S
S2042      C2043   1.722       .  A
C2043      C2044   1.386       .  A
C2044      H2048   1.083       .  S
C2049      C2054   1.386       .  A
C2049      C2050   1.405       .  A
C2049      S2055   1.716       .  A
C2050      C2051   1.407       .  A
C2050      H2061   1.083       .  S
C2051      C2060   1.373       .  A
C2051      C2052   1.387       .  A
C2052      C2053   1.401       .  A
C2052      S2058   1.712       .  A
C2053      C2054   1.403       .  A
C2053      H2062   1.083       .  S
C2054      C2057   1.369       .  A
S2055      C2056   1.725       .  A
C2056      C2057   1.387       .  A
C2057      H2063   1.083       .  S
S2058      C2059   1.721       .  A
C2059      C2060   1.389       .  A
C2060      H2064   1.083       .  S
C2065      C2070   1.387       .  A
C2065      C2066   1.401       .  A
C2065      S2071   1.707       .  A
C2066      C2067   1.402       .  A
C2066      H2077   1.083       .  S
C2067      C2076   1.368       .  A
C2067      C2068   1.386       .  A
C2068      C2069   1.405       .  A
C2068      S2074   1.712       .  A
C2069      C2070   1.406       .  A
C2069      H2078   1.083       .  S
C2070      C2073   1.374       .  A
S2071      C2072   1.721       .  A
C2072      C2073   1.386       .  A
C2073      H2079   1.083       .  S
S2074      C2075   1.725       .  A
C2075      C2076   1.387       .  A
C2076      H2080   1.083       .  S
C2081      C2086   1.387       .  A
C2081      C2082   1.399       .  A
C2081      S2087   1.705       .  A
C2082      C2083   1.401       .  A
C2082      H2093   1.083       .  S
C2083      C2092   1.367       .  A
C2083      C2084   1.384       .  A
C2084      C2085   1.407       .  A
C2084      S2090   1.714       .  A
C2085      C2086   1.408       .  A
C2085      H2094   1.083       .  S
C2086      C2089   1.376       .  A
S2087      C2088   1.718       .  A
C2088      C2089   1.388       .  A
C2089      H2095   1.083       .  S
S2090      C2091   1.729       .  A
C2091      C2092   1.389       .  A
C2092      H2096   1.083       .  S
C2097      C2102   1.386       .  A
C2097      C2098   1.400       .  A
C2097      S2103   1.703       .  A
C2098      C2099   1.401       .  A
C2098      H2109   1.083       .  S
C2099      C2108   1.370       .  A
C2099      C2100   1.388       .  A
C2100      C2101   1.406       .  A
C2100      S2106   1.713       .  A
C2101      C2102   1.406       .  A
C2101      H2110   1.083       .  S
C2102      C2105   1.376       .  A
S2103      C2104   1.725       .  A
C2104      C2105   1.391       .  A
C2105      H2111   1.081       .  S
S2106      C2107   1.723       .  A
C2107      C2108   1.384       .  A
C2108      H2112   1.083       .  S
C2113      C2118   1.387       .  A
C2113      C2114   1.399       .  A
C2113      S2119   1.702       .  A
C2114      C2115   1.399       .  A
C2114      H2125   1.083       .  S
C2115      C2124   1.368       .  A
C2115      C2116   1.386       .  A
C2116      C2117   1.406       .  A
C2116      S2122   1.712       .  A
C2117      C2118   1.407       .  A
C2117      H2126   1.083       .  S
C2118      C2121   1.376       .  A
S2119      C2120   1.722       .  A
C2120      C2121   1.390       .  A
C2121      H2127   1.083       .  S
S2122      C2123   1.726       .  A
C2123      C2124   1.386       .  A
C2124      H2128   1.083       .  S
C2129      C2134   1.387       .  A
C2129      C2130   1.401       .  A
C2129      S2135   1.706       .  A
C2130      C2131   1.401       .  A
C2130      H2141   1.083       .  S
C2131      C2140   1.371       .  A
C2131      C2132   1.386       .  A
C2132      C2133   1.406       .  A
C2132      S2138   1.712       .  A
C2133      C2134   1.407       .  A
C2133      H2142   1.083       .  S
C2134      C2137   1.376       .  A
S2135      C2136   1.723       .  A
C2136      C2137   1.391       .  A
C2137      H2143   1.083       .  S
S2138      C2139   1.724       .  A
C2139      C2140   1.384       .  A
C2140      H2144   1.083       .  S
C2145      C2150   1.387       .  A
C2145      C2146   1.399       .  A
C2145      S2151   1.706       .  A
C2146      C2147   1.401       .  A
C2146      H2157   1.083       .  S
C2147      C2156   1.367       .  A
C2147      C2148   1.387       .  A
C2148      C2149   1.400       .  A
C2148      S2154   1.706       .  A
C2149      C2150   1.401       .  A
C2149      H2158   1.083       .  S
C2150      C2153   1.367       .  A
S2151      C2152   1.721       .  A
C2152      C2153   1.386       .  A
C2153      H2159   1.083       .  S
S2154      C2155   1.723       .  A
C2155      C2156   1.385       .  A
C2156      H2160   1.083       .  S
C2161      C2166   1.386       .  A
C2161      C2162   1.400       .  A
C2161      S2167   1.707       .  A
C2162      C2163   1.402       .  A
C2162      H2173   1.083       .  S
C2163      C2172   1.368       .  A
C2163      C2164   1.386       .  A
C2164      C2165   1.408       .  A
C2164      S2170   1.718       .  A
C2165      C2166   1.410       .  A
C2165      H2174   1.083       .  S
C2166      C2169   1.377       .  A
S2167      C2168   1.722       .  A
C2168      C2169   1.392       .  A
C2169      H2175   1.083       .  S
S2170      C2171   1.725       .  A
C2171      C2172   1.386       .  A
C2172      H2176   1.083       .  S
C2177      C2182   1.387       .  A
C2177      C2178   1.398       .  A
C2177      S2183   1.703       .  A
C2178      C2179   1.399       .  A
C2178      H2189   1.083       .  S
C2179      C2188   1.368       .  A
C2179      C2180   1.386       .  A
C2180      C2181   1.407       .  A
C2180      S2186   1.713       .  A
C2181      C2182   1.408       .  A
C2181      H2190   1.083       .  S
C2182      C2185   1.377       .  A
S2183      C2184   1.721       .  A
C2184      C2185   1.391       .  A
C2185      H2191   1.083       .  S
S2186      C2187   1.728       .  A
C2187      C2188   1.384       .  A
C2188      H2192   1.083       .  S
C2193      C2198   1.387       .  A
C2193      C2194   1.404       .  A
C2193      S2199   1.710       .  A
C2194      C2195   1.405       .  A
C2194      H2205   1.083       .  S
C2195      C2204   1.371       .  A
C2195      C2196   1.387       .  A
C2196      C2197   1.397       .  A
C2196      S2202   1.702       .  A
C2197      C2198   1.398       .  A
C2197      H2206   1.083       .  S
C2198      C2201   1.365       .  A
S2199      C2200   1.725       .  A
C2200      C2201   1.383       .  A
C2201      H2207   1.083       .  S
S2202      C2203   1.720       .  A
C2203      C2204   1.388       .  A
C2204      H2208   1.083       .  S
C2209      C2214   1.386       .  A
C2209      C2210   1.410       .  A
C2209      S2215   1.718       .  A
C2210      C2211   1.411       .  A
C2210      H2221   1.083       .  S
C2211      C2220   1.381       .  A
C2211      C2212   1.387       .  A
C2212      C2213   1.401       .  A
C2212      S2218   1.707       .  A
C2213      C2214   1.401       .  A
C2213      H2222   1.083       .  S
C2214      C2217   1.371       .  A
S2215      C2216   1.727       .  A
C2216      C2217   1.386       .  A
C2217      H2223   1.083       .  S
S2218      C2219   1.721       .  A
C2219      C2220   1.394       .  A
C2220      H2224   1.083       .  S
C2225      C2230   1.388       .  A
C2225      C2226   1.399       .  A
C2225      S2231   1.706       .  A
C2226      C2227   1.401       .  A
C2226      H2237   1.083       .  S
C2227      C2236   1.368       .  A
C2227      C2228   1.385       .  A
C2228      C2229   1.405       .  A
C2228      S2234   1.710       .  A
C2229      C2230   1.405       .  A
C2229      H2238   1.083       .  S
C2230      C2233   1.373       .  A
S2231      C2232   1.719       .  A
C2232      C2233   1.385       .  A
C2233      H2239   1.083       .  S
S2234      C2235   1.729       .  A
C2235      C2236   1.387       .  A
C2236      H2240   1.077       .  S
C2241      C2246   1.387       .  A
C2241      C2242   1.395       .  A
C2241      S2247   1.701       .  A
C2242      C2243   1.397       .  A
C2242      H2253   1.083       .  S
C2243      C2252   1.362       .  A
C2243      C2244   1.386       .  A
C2244      C2245   1.406       .  A
C2244      S2250   1.714       .  A
C2245      C2246   1.408       .  A
C2245      H2254   1.083       .  S
C2246      C2249   1.374       .  A
S2247      C2248   1.719       .  A
C2248      C2249   1.390       .  A
C2249      H2255   1.083       .  S
S2250      C2251   1.727       .  A
C2251      C2252   1.383       .  A
C2252      H2256   1.083       .  S
C2257      C2262   1.385       .  A
C2257      C2258   1.406       .  A
C2257      S2263   1.712       .  A
C2258      C2259   1.407   1_565  A
C2258      H2269   1.083       .  S
C2259      C2268   1.377       .  A
C2259      C2260   1.387       .  A
C2260      C2261   1.402       .  A
C2260      S2266   1.707       .  A
C2261      C2262   1.403   1_545  A
C2261      H2270   1.083       .  S
C2262      C2265   1.371       .  A
S2263      C2264   1.728       .  A
C2264      C2265   1.389       .  A
C2265      H2271   1.083       .  S
S2266      C2267   1.722       .  A
C2267      C2268   1.389       .  A
C2268      H2272   1.083       .  S
C2273      C2278   1.387       .  A
C2273      C2274   1.402       .  A
C2273      S2279   1.703       .  A
C2274      C2275   1.401       .  A
C2274      H2285   1.083       .  S
C2275      C2284   1.374       .  A
C2275      C2276   1.386       .  A
C2276      C2277   1.407       .  A
C2276      S2282   1.709       .  A
C2277      C2278   1.406       .  A
C2277      H2286   1.083       .  S
C2278      C2281   1.379       .  A
S2279      C2280   1.723       .  A
C2280      C2281   1.388       .  A
C2281      H2287   1.083       .  S
S2282      C2283   1.727       .  A
C2283      C2284   1.387       .  A
C2284      H2288   1.083       .  S
C2289      C2294   1.387       .  A
C2289      C2290   1.399       .  A
C2289      S2295   1.704       .  A
C2290      C2291   1.400   1_565  A
C2290      H2301   1.083       .  S
C2291      C2300   1.367       .  A
C2291      C2292   1.386       .  A
C2292      C2293   1.403   1_545  A
C2292      S2298   1.708       .  A
C2293      C2294   1.404       .  A
C2293      H2302   1.083   1_565  S
C2294      C2297   1.372       .  A
S2295      C2296   1.720       .  A
C2296      C2297   1.385       .  A
C2297      H2303   1.083       .  S
S2298      C2299   1.724       .  A
C2299      C2300   1.386       .  A
C2300      H2304   1.083       .  S
C2305      C2310   1.385       .  A
C2305      C2306   1.404       .  A
C2305      S2311   1.707       .  A
C2306      C2307   1.404       .  A
C2306      H2317   1.083       .  S
C2307      C2316   1.374       .  A
C2307      C2308   1.388       .  A
C2308      C2309   1.402       .  A
C2308      S2314   1.706       .  A
C2309      C2310   1.403       .  A
C2309      H2318   1.083       .  S
C2310      C2313   1.371       .  A
S2311      C2312   1.728       .  A
C2312      C2313   1.389       .  A
C2313      H2319   1.077       .  S
S2314      C2315   1.723       .  A
C2315      C2316   1.385       .  A
C2316      H2320   1.083       .  S
C2321      C2326   1.386       .  A
C2321      C2322   1.405       .  A
C2321      S2327   1.712       .  A
C2322      C2323   1.406       .  A
C2322      H2333   1.083       .  S
C2323      C2332   1.374       .  A
C2323      C2324   1.387       .  A
C2324      C2325   1.400       .  A
C2324      S2330   1.706       .  A
C2325      C2326   1.401       .  A
C2325      H2334   1.083       .  S
C2326      C2329   1.368       .  A
S2327      C2328   1.724       .  A
C2328      C2329   1.385       .  A
C2329      H2335   1.083       .  S
S2330      C2331   1.722       .  A
C2331      C2332   1.388       .  A
C2332      H2336   1.083       .  S
C2337      C2342   1.386       .  A
C2337      C2338   1.406       .  A
C2337      S2343   1.715       .  A
C2338      C2339   1.407       .  A
C2338      H2349   1.083       .  S
C2339      C2348   1.375       .  A
C2339      C2340   1.387       .  A
C2340      C2341   1.400       .  A
C2340      S2346   1.707       .  A
C2341      C2342   1.402       .  A
C2341      H2350   1.083       .  S
C2342      C2345   1.368       .  A
S2343      C2344   1.724       .  A
C2344      C2345   1.387       .  A
C2345      H2351   1.083       .  S
S2346      C2347   1.723       .  A
C2347      C2348   1.390       .  A
C2348      H2352   1.083       .  S
C2353      C2358   1.386       .  A
C2353      C2354   1.403       .  A
C2353      S2359   1.708       .  A
C2354      C2355   1.404       .  A
C2354      H2365   1.083       .  S
C2355      C2364   1.372       .  A
C2355      C2356   1.388       .  A
C2356      C2357   1.401       .  A
C2356      S2362   1.707       .  A
C2357      C2358   1.402       .  A
C2357      H2366   1.083       .  S
C2358      C2361   1.369       .  A
S2359      C2360   1.726       .  A
C2360      C2361   1.386       .  A
C2361      H2367   1.077       .  S
S2362      C2363   1.721       .  A
C2363      C2364   1.384       .  A
C2364      H2368   1.083       .  S
C2369      C2374   1.386       .  A
C2369      C2370   1.405       .  A
C2369      S2375   1.709       .  A
C2370      C2371   1.405       .  A
C2370      H2381   1.083       .  S
C2371      C2380   1.376       .  A
C2371      C2372   1.387       .  A
C2372      C2373   1.406       .  A
C2372      S2378   1.711       .  A
C2373      C2374   1.406       .  A
C2373      H2382   1.083       .  S
C2374      C2377   1.378       .  A
S2375      C2376   1.726       .  A
C2376      C2377   1.391       .  A
C2377      H2383   1.083       .  S
S2378      C2379   1.724       .  A
C2379      C2380   1.386       .  A
C2380      H2384   1.083       .  S
C2385      C2390   1.387       .  A
C2385      C2386   1.403       .  A
C2385      S2391   1.705       .  A
C2386      C2387   1.403       .  A
C2386      H2397   1.083       .  S
C2387      C2396   1.373       .  A
C2387      C2388   1.386       .  A
C2388      C2389   1.405       .  A
C2388      S2394   1.711       .  A
C2389      C2390   1.405       .  A
C2389      H2398   1.083       .  S
C2390      C2393   1.376   1_556  A
S2391      C2392   1.724   1_556  A
C2392      C2393   1.389       .  A
C2393      H2399   1.083       .  S
S2394      C2395   1.723       .  A
C2395      C2396   1.387       .  A
C2396      H2400   1.083       .  S
C2401      C2406   1.385       .  A
C2401      C2402   1.408       .  A
C2401      S2407   1.716       .  A
C2402      C2403   1.409       .  A
C2402      H2413   1.083       .  S
C2403      C2412   1.379       .  A
C2403      C2404   1.386       .  A
C2404      C2405   1.404       .  A
C2404      S2410   1.710       .  A
C2405      C2406   1.405       .  A
C2405      H2414   1.083       .  S
C2406      C2409   1.374       .  A
S2407      C2408   1.726       .  A
C2408      C2409   1.389       .  A
C2409      H2415   1.083       .  S
S2410      C2411   1.725       .  A
C2411      C2412   1.393       .  A
C2412      H2416   1.083       .  S
C2417      C2422   1.386       .  A
C2417      C2418   1.402       .  A
C2417      S2423   1.702       .  A
C2418      C2419   1.401       .  A
C2418      H2429   1.083       .  S
C2419      C2428   1.373   1_556  A
C2419      C2420   1.386       .  A
C2420      C2421   1.409       .  A
C2420      S2426   1.713       .  A
C2421      C2422   1.409       .  A
C2421      H2430   1.083       .  S
C2422      C2425   1.381       .  A
S2423      C2424   1.725       .  A
C2424      C2425   1.393       .  A
C2425      H2431   1.081       .  S
S2426      C2427   1.726   1_556  A
C2427      C2428   1.386       .  A
C2428      H2432   1.083       .  S
C2433      C2438   1.388       .  A
C2433      C2434   1.408       .  A
C2433      S2439   1.714       .  A
C2434      C2435   1.408       .  A
C2434      H2445   1.083       .  S
C2435      C2444   1.379       .  A
C2435      C2436   1.386       .  A
C2436      C2437   1.399       .  A
C2436      S2442   1.700       .  A
C2437      C2438   1.399       .  A
C2437      H2446   1.083       .  S
C2438      C2441   1.369       .  A
S2439      C2440   1.724       .  A
C2440      C2441   1.381       .  A
C2441      H2447   1.083       .  S
S2442      C2443   1.723       .  A
C2443      C2444   1.391       .  A
C2444      H2448   1.081       .  S
C2449      C2454   1.386       .  A
C2449      C2450   1.403       .  A
C2449      S2455   1.711       .  A
C2450      C2451   1.405       .  A
C2450      H2461   1.083       .  S
C2451      C2460   1.371       .  A
C2451      C2452   1.386       .  A
C2452      C2453   1.406       .  A
C2452      S2458   1.716       .  A
C2453      C2454   1.407       .  A
C2453      H2462   1.083       .  S
C2454      C2457   1.375       .  A
S2455      C2456   1.724       .  A
C2456      C2457   1.390       .  A
C2457      H2463   1.083       .  S
S2458      C2459   1.724       .  A
C2459      C2460   1.389       .  A
C2460      H2464   1.083       .  S
C2465      C2470   1.384       .  A
C2465      C2466   1.409       .  A
C2465      S2471   1.720       .  A
C2466      C2467   1.411       .  A
C2466      H2477   1.082       .  S
C2467      C2476   1.378       .  A
C2467      C2468   1.387       .  A
C2468      C2469   1.398       .  A
C2468      S2474   1.705       .  A
C2469      C2470   1.400       .  A
C2469      H2478   1.083       .  S
C2470      C2473   1.365       .  A
S2471      C2472   1.730       .  A
C2472      C2473   1.389       .  A
C2473      H2479   1.082       .  S
S2474      C2475   1.721       .  A
C2475      C2476   1.391       .  A
C2476      H2480   1.083       .  S
C2481      C2486   1.385       .  A
C2481      C2482   1.403       .  A
C2481      S2487   1.708       .  A
C2482      C2483   1.404       .  A
C2482      H2493   1.083       .  S
C2483      C2492   1.373       .  A
C2483      C2484   1.388       .  A
C2484      C2485   1.403       .  A
C2484      S2490   1.708       .  A
C2485      C2486   1.404       .  A
C2485      H2494   1.083       .  S
C2486      C2489   1.372       .  A
S2487      C2488   1.727       .  A
C2488      C2489   1.392       .  A
C2489      H2495   1.079       .  S
S2490      C2491   1.723       .  A
C2491      C2492   1.385       .  A
C2492      H2496   1.083       .  S
C2497      C2502   1.386       .  A
C2497      C2498   1.410       .  A
C2497      S2503   1.715       .  A
C2498      C2499   1.409       .  A
C2498      H2509   1.083       .  S
C2499      C2508   1.383       .  A
C2499      C2500   1.386       .  A
C2500      C2501   1.405       .  A
C2500      S2506   1.708       .  A
C2501      C2502   1.405       .  A
C2501      H2510   1.083       .  S
C2502      C2505   1.377       .  A
S2503      C2504   1.726       .  A
C2504      C2505   1.388       .  A
C2505      H2511   1.083       .  S
S2506      C2507   1.727       .  A
C2507      C2508   1.394       .  A
C2508      H2512   1.083       .  S
C2513      C2518   1.385       .  A
C2513      C2514   1.402       .  A
C2513      S2519   1.704       .  A
C2514      C2515   1.402       .  A
C2514      H2525   1.083       .  S
C2515      C2524   1.373       .  A
C2515      C2516   1.386       .  A
C2516      C2517   1.409       .  A
C2516      S2522   1.715       .  A
C2517      C2518   1.408       .  A
C2517      H2526   1.083       .  S
C2518      C2521   1.379       .  A
S2519      C2520   1.727       .  A
C2520      C2521   1.393       .  A
C2521      H2527   1.082       .  S
S2522      C2523   1.725       .  A
C2523      C2524   1.386       .  A
C2524      H2528   1.083       .  S
C2529      C2534   1.386       .  A
C2529      C2530   1.405       .  A
C2529      S2535   1.711       .  A
C2530      C2531   1.406       .  A
C2530      H2541   1.083       .  S
C2531      C2540   1.374       .  A
C2531      C2532   1.386       .  A
C2532      C2533   1.402       .  A
C2532      S2538   1.709       .  A
C2533      C2534   1.404       .  A
C2533      H2542   1.083       .  S
C2534      C2537   1.372       .  A
S2535      C2536   1.724       .  A
C2536      C2537   1.386       .  A
C2537      H2543   1.083       .  S
S2538      C2539   1.723       .  A
C2539      C2540   1.390       .  A
C2540      H2544   1.083       .  S
C2545      C2550   1.385       .  A
C2545      C2546   1.409       .  A
C2545      S2551   1.719       .  A
C2546      C2547   1.410       .  A
C2546      H2557   1.083       .  S
C2547      C2556   1.379       .  A
C2547      C2548   1.387       .  A
C2548      C2549   1.400       .  A
C2548      S2554   1.707       .  A
C2549      C2550   1.402       .  A
C2549      H2558   1.083       .  S
C2550      C2553   1.369       .  A
S2551      C2552   1.729       .  A
C2552      C2553   1.388       .  A
C2553      H2559   1.083       .  S
S2554      C2555   1.721       .  A
C2555      C2556   1.390       .  A
C2556      H2560   1.083       .  S
C2561      C2566   1.386       .  A
C2561      C2562   1.402       .  A
C2561      S2567   1.704       .  A
C2562      C2563   1.402       .  A
C2562      H2573   1.083       .  S
C2563      C2572   1.371       .  A
C2563      C2564   1.388       .  A
C2564      C2565   1.402       .  A
C2564      S2570   1.706       .  A
C2565      C2566   1.402       .  A
C2565      H2574   1.083       .  S
C2566      C2569   1.371       .  A
S2567      C2568   1.727       .  A
C2568      C2569   1.389       .  A
C2569      H2575   1.079       .  S
S2570      C2571   1.722       .  A
C2571      C2572   1.384       .  A
C2572      H2576   1.082       .  S
C2577      C2582   1.386       .  A
C2577      C2578   1.407       .  A
C2577      S2583   1.715       .  A
C2578      C2579   1.408       .  A
C2578      H2589   1.083       .  S
C2579      C2588   1.376       .  A
C2579      C2580   1.387       .  A
C2580      C2581   1.402       .  A
C2580      S2586   1.710       .  A
C2581      C2582   1.403       .  A
C2581      H2590   1.083       .  S
C2582      C2585   1.371       .  A
S2583      C2584   1.727       .  A
C2584      C2585   1.388       .  A
C2585      H2591   1.083       .  S
S2586      C2587   1.722       .  A
C2587      C2588   1.390       .  A
C2588      H2592   1.083       .  S
