geometry optimzed in LAMMPS
_audit_creation_date              2020-12-01 
_audit_creation_method            'lammps2cif' 
_symmetry_space_group_name_H-M    'P1' 
_symmetry_Int_Tables_number       1 
_symmetry_cell_setting            triclinic 
loop_ 
_symmetry_equiv_pos_as_xyz 
  x,y,z 
_cell_length_a                    41.42010238 
_cell_length_b                    41.459492319609595 
_cell_length_c                    43.73106482946498 
_cell_angle_alpha                 90.0660717955761 
_cell_angle_beta                  90.00341290057133 
_cell_angle_gamma                 120.00488718855087 
loop_ 
_atom_site_label 
_atom_site_type_symbol 
_atom_site_fract_x 
_atom_site_fract_y 
_atom_site_fract_z 
_atom_site_charge 
N1          N  0.00219590  0.22046459  0.03653479    -0.35700
N2          N  0.50186408  0.29021424  0.02956833    -0.56200
N3          N  0.00443994  0.28424371  0.46332676    -0.35700
N4          N  0.00158287  0.21294980  0.47038380    -0.56200
C5          C  0.49465800  0.22580769  0.06557577     0.27900
C6          C  0.99450014  0.18474157  0.03432974     0.27900
C7          C  0.49780817  0.31298552  0.46549764     0.27900
C8          C  0.99656601  0.27139063  0.43427550     0.27900
C9          C  0.50657857  0.29079153  0.06024039     0.36500
C10         C  0.50789299  0.32432118  0.02163850     0.36500
C11         C  0.00549797  0.18354859  0.47827726     0.36500
C12         C  0.00576508  0.21657568  0.43966129     0.36500
C13         C  0.48237657  0.19314456  0.08208733    -0.21000
C14         C  0.98249062  0.16731579  0.06242051    -0.21000
C15         C  0.48613441  0.31890141  0.43744413    -0.21000
C16         C  0.98515058  0.29252633  0.41776360    -0.21000
C17         C  0.51520970  0.32527485  0.07193254    -0.22000
C18         C  0.51605735  0.34650900  0.04751797    -0.22000
C19         C  0.01173067  0.16817961  0.45224590    -0.22000
C20         C  0.01195680  0.18911204  0.42787255    -0.22000
C21         C  0.50078451  0.25990278  0.07805047    -0.17400
C22         C  0.00000299  0.16816959  0.00810279    -0.17400
C23         C  0.00124635  0.24247431  0.42185060    -0.17400
C24         C  0.50350126  0.33494223  0.99179201    -0.17400
H25         H  0.47417606  0.18834629  0.10587154     0.15500
H26         H  0.97473936  0.13899353  0.06826251     0.15500
H27         H  0.47892796  0.33993223  0.43177031     0.15500
H28         H  0.97680618  0.28923308  0.39400793     0.15500
H29         H  0.51992609  0.33405953  0.09562099     0.13800
H30         H  0.52155570  0.37489907  0.04876809     0.13800
H31         H  0.01482784  0.14381395  0.45071356     0.13800
H32         H  0.01543645  0.18414046  0.40411480     0.13800
H33         H  0.01580438  0.24110466  0.02024456     0.27100
H34         H  0.01744153  0.27657777  0.47973131     0.27100
N35         N  0.99706028  0.21739873  0.21333721    -0.35700
N36         N  0.99890446  0.28816275  0.22040304    -0.56200
N37         N  0.99778047  0.28061867  0.28659399    -0.35700
N38         N  0.99916424  0.21138606  0.27960245    -0.56200
C39         C  0.00459728  0.22997237  0.18423118     0.27900
C40         C  0.00355419  0.18858809  0.21549113     0.27900
C41         C  0.00534341  0.31629180  0.28434358     0.27900
C42         C  0.00563031  0.27551561  0.31560124     0.27900
C43         C  0.99492537  0.28451936  0.18965576     0.36500
C44         C  0.99446631  0.31727842  0.22826275     0.36500
C45         C  0.99337158  0.17736029  0.27164064     0.36500
C46         C  0.99418486  0.21071912  0.31023431     0.36500
C47         C  0.01568958  0.20858202  0.16765562    -0.21000
C48         C  0.01484188  0.18233937  0.18736819    -0.21000
C49         C  0.01753716  0.33391545  0.31238412    -0.21000
C50         C  0.01793148  0.30826541  0.33205905    -0.21000
C51         C  0.98835113  0.31169047  0.17783699    -0.22000
C52         C  0.98812816  0.33245537  0.20219924    -0.22000
C53         C  0.98508658  0.15513531  0.29746783    -0.22000
C54         C  0.98561009  0.17626442  0.32187871    -0.22000
C55         C  0.99979711  0.25880534  0.17183666    -0.17400
C56         C  0.99789867  0.16677124  0.24180441    -0.17400
C57         C  0.99983334  0.24156236  0.32807041    -0.17400
C58         C  0.99966122  0.33266153  0.25809202    -0.17400
H59         H  0.02366954  0.21157551  0.14382966     0.15500
H60         H  0.02178054  0.16111510  0.18164957     0.15500
H61         H  0.02528833  0.36226911  0.31817127     0.15500
H62         H  0.02634922  0.31323985  0.35580337     0.15500
H63         H  0.98486191  0.31655970  0.15406654     0.13800
H64         H  0.98464501  0.35658484  0.20064442     0.13800
H65         H  0.97968626  0.12677961  0.29868838     0.13800
H66         H  0.98071930  0.16743362  0.34553415     0.13800
H67         H  0.98429833  0.22524802  0.22981595     0.27100
H68         H  0.98410596  0.25986186  0.27034671     0.31700
O69         O  0.01712195  0.45464448  0.02033410    -0.87400
C70         C  0.06639951  0.03215104  0.45213355     0.88600
Mg71       Mg  0.45955045  0.41154233  0.01860600     1.58100
O72         O  0.04712595  0.06437386  0.02057316    -0.87100
O73         O  0.05697439  0.99939940  0.04979505    -0.74500
C74         C  0.36679792  0.99837570  0.48815837     0.93700
O75         O  0.99886441  0.44322543  0.44799845    -0.74300
O76         O  0.36547891  0.46762833  0.48266413    -0.81800
Mg77       Mg  0.04921183  0.46039247  0.47974698     1.58000
C78         C  0.49814284  0.13173576  0.01101535     0.93600
O79         O  0.10272113  0.47406878  0.00561963    -0.80000
H80         H  0.05462973  0.07520344  0.06538439    -0.05400
C81         C  0.46974553  0.03682156  0.45254849     0.88500
O82         O  0.44221830  0.44491329  0.04985851    -0.74600
O83         O  0.06400786  0.01812098  0.47752592    -0.87300
O84         O  0.02782091  0.13051695  0.00640089    -0.80100
C85         C  0.13049517  0.13429350  0.48809716     0.93700
C86         C  0.13356883  0.00390063  0.01002157     0.93600
Mg87       Mg  0.45157184  0.04203481  0.01891416     1.58000
O88         O  0.39699604  0.02796850  0.49478116    -0.80100
O89         O  0.50233506  0.05898452  0.05021505    -0.74300
O90         O  0.12985716  0.10383011  0.49338882    -0.80100
O91         O  0.03435398  0.40010833  0.48366994    -0.81800
O92         O  0.37066071  0.39787023  0.00307270    -0.80200
C93         C  0.03582283  0.06686070  0.04607784     0.88000
O94         O  0.43658235  0.48423823  0.02040412    -0.87300
O95         O  0.48343385  0.04801565  0.47810683    -0.87400
O96         O  0.44454391  0.50326971  0.44815852    -0.74500
Mg97       Mg  0.09012050  0.04989302  0.01830148     1.58000
O98         O  0.10108774  0.13597921  0.48382230    -0.81800
H99         H  0.02106783  0.44720060  0.06504721    -0.05600
O100        O  0.45370952  0.43739217  0.47748031    -0.87100
H101        H  0.44651237  0.42641188  0.43267050    -0.05400
H102        H  0.42531480  0.48035219  0.06513325    -0.05600
C103        C  0.46523603  0.43494262  0.45204272     0.88000
C104        C  0.03126751  0.46596110  0.04574576     0.88600
C105        C  0.43396629  0.47022517  0.04580277     0.88600
H106        H  0.48010963  0.05576480  0.43336766    -0.05600
O107        O  0.05819994  0.05756809  0.44824356    -0.74600
Mg108      Mg  0.41096794  0.45252498  0.47919839     1.58000
H109        H  0.07489219  0.02203247  0.43269431    -0.05600
C110        C  0.50364911  0.37053523  0.48879204     0.93600
O111        O  0.39923049  0.36612329  0.01524115    -0.81800
C112        C  0.36988860  0.36763338  0.00979719     0.93700
O113        O  0.13554108  0.03516712  0.01404227    -0.81800
Mg114      Mg  0.04109054  0.09072835  0.48021223     1.58200
O115        O  0.47369513  0.37085503  0.49455037    -0.80100
O116        O  0.46675311  0.10254370  0.01511950    -0.81800
O117        O  0.48364092  0.04728338  0.27069680    -0.87400
C118        C  0.43361624  0.46948306  0.20276302     0.88600
Mg119      Mg  0.04138006  0.08991638  0.26875049     1.58100
O120        O  0.45302527  0.43718512  0.27105649    -0.87100
O121        O  0.44393562  0.50285112  0.30037731    -0.74500
C122        C  0.13285266  0.00209935  0.23797565     0.93700
O123        O  0.50158303  0.05799659  0.19821964    -0.74300
O124        O  0.13434568  0.03296290  0.23287053    -0.81800
Mg125      Mg  0.45144786  0.04140907  0.23002156     1.58000
C126        C  0.50148862  0.36910438  0.26090125     0.93600
O127        O  0.39790616  0.02835021  0.25563492    -0.80000
H128        H  0.44580432  0.42614590  0.31583476    -0.05400
C129        C  0.02974522  0.46412171  0.20249657     0.88500
O130        O  0.05857827  0.05636468  0.29992232    -0.74600
O131        O  0.43632552  0.48367621  0.22814895    -0.87300
O132        O  0.47179730  0.37035701  0.25629184    -0.80100
C133        C  0.36883221  0.36774338  0.23900333     0.93700
C134        C  0.36707353  0.99862934  0.26036678     0.93600
Mg135      Mg  0.04832907  0.45876589  0.26871104     1.58000
O136        O  0.10251103  0.47243960  0.24406427    -0.80100
O137        O  0.99787641  0.44199040  0.30033578    -0.74300
O138        O  0.36973458  0.39838344  0.24407576    -0.80100
O139        O  0.46675415  0.10170737  0.23352198    -0.81800
O140        O  0.13009697  0.10260704  0.25373306    -0.80200
C141        C  0.46444766  0.43445941  0.29643957     0.88000
O142        O  0.06344602  0.01659160  0.27039098    -0.87300
O143        O  0.01620997  0.45282052  0.22806843    -0.87400
O144        O  0.05511496  0.99763839  0.19822403    -0.74500
Mg145      Mg  0.41024967  0.45223500  0.26898169     1.58000
O146        O  0.39808735  0.36578975  0.23461553    -0.81800
H147        H  0.48010727  0.05515047  0.31540398    -0.05600
O148        O  0.04674679  0.06378620  0.22765845    -0.87100
H149        H  0.05381247  0.07446499  0.18282457    -0.05400
H150        H  0.07499358  0.02051512  0.31507896    -0.05600
C151        C  0.03517559  0.06615648  0.20222592     0.88000
C152        C  0.46967351  0.03622657  0.29617262     0.88600
C153        C  0.06637871  0.03073281  0.29580720     0.88600
H154        H  0.01913592  0.44529944  0.18320765    -0.05600
O155        O  0.44146172  0.44383107  0.19881414    -0.74600
Mg156      Mg  0.08921946  0.04832005  0.22938832     1.58000
H157        H  0.42515821  0.47966943  0.18337122    -0.05600
C158        C  0.49753809  0.13112614  0.23881436     0.93600
O159        O  0.10178709  0.13491475  0.26473820    -0.81800
C160        C  0.13101466  0.13315044  0.25945233     0.93700
O161        O  0.36514824  0.46745864  0.26481029    -0.81800
Mg162      Mg  0.45839630  0.41047187  0.23054526     1.58200
O163        O  0.02731309  0.13061317  0.24491191    -0.80100
O164        O  0.03293735  0.39827946  0.26486249    -0.81800
N165        N  0.28986264  0.00367323  0.02862031    -0.35700
N166        N  0.28023114  0.99807968  0.46238421    -0.56200
N167        N  0.21202607  0.00130561  0.46953088    -0.35700
N168        N  0.21982270  0.00333482  0.03579597    -0.56200
C169        C  0.31636356  0.99533539  0.02038872     0.27900
C170        C  0.28474617  0.99831980  0.05920347     0.27900
C171        C  0.21042546  0.99357213  0.43927093     0.27900
C172        C  0.17797497  0.99508880  0.47812150     0.27900
C173        C  0.31525152  0.00369960  0.46403016     0.36500
C174        C  0.27474057  0.00395307  0.43295458     0.36500
C175        C  0.23208748  0.01081487  0.06497864     0.36500
C176        C  0.19066935  0.00931213  0.03383893     0.36500
C177        C  0.32863411  0.98510777  0.04620667    -0.21000
C178        C  0.30871628  0.98700229  0.07065063    -0.21000
C179        C  0.17505858  0.98274967  0.42830630    -0.21000
C180        C  0.15462888  0.98378310  0.45270581    -0.21000
C181        C  0.33200414  0.01273490  0.43554278    -0.22000
C182        C  0.30641671  0.01318824  0.41586458    -0.22000
C183        C  0.21043822  0.02140128  0.08168848    -0.22000
C184        C  0.18402175  0.02018837  0.06201401    -0.22000
C185        C  0.33161396  0.99912329  0.99065949    -0.17400
C186        C  0.26049880  0.00527686  0.07724948    -0.17400
C187        C  0.16842938  0.00248009  0.00752252    -0.17400
C188        C  0.24071334  0.99848390  0.42094763    -0.17400
H189        H  0.35005260  0.97745612  0.04741112     0.15500
H190        H  0.31182509  0.98107461  0.09422400     0.15500
H191        H  0.16516063  0.97552733  0.40501111     0.15500
H192        H  0.12602516  0.97764144  0.45146600     0.15500
H193        H  0.35980033  0.01860582  0.42962488     0.13800
H194        H  0.31077512  0.01983595  0.39178988     0.13800
H195        H  0.21333128  0.02918175  0.10555936     0.13800
H196        H  0.16229446  0.02634725  0.06789810     0.13800
H197        H  0.27903313  0.01630077  0.01481133     0.27100
H198        H  0.23610885  0.01438404  0.48260740     0.27100
N199        N  0.28808467  0.00010889  0.21968581    -0.35700
N200        N  0.21926691  0.00207759  0.21240629    -0.56200
N201        N  0.20972565  0.99698036  0.27859865    -0.35700
N202        N  0.28020592  0.99824318  0.28589692    -0.56200
C203        C  0.28947044  0.00748673  0.18938110     0.27900
C204        C  0.32236385  0.00701590  0.22835924     0.27900
C205        C  0.18337412  0.00546738  0.27026873     0.27900
C206        C  0.21500729  0.00269277  0.30914120     0.27900
C207        C  0.22481676  0.99621171  0.18298324     0.36500
C208        C  0.18425056  0.99646283  0.21398634     0.36500
C209        C  0.30961493  0.99265619  0.28400421     0.36500
C210        C  0.26762634  0.99024030  0.31495223     0.36500
C211        C  0.32495536  0.01880228  0.17846670    -0.21000
C212        C  0.34566846  0.01845667  0.20294552    -0.21000
C213        C  0.17141005  0.01623942  0.29598694    -0.21000
C214        C  0.19134542  0.01446770  0.32048141    -0.21000
C215        C  0.19315177  0.98694354  0.16582896    -0.22000
C216        C  0.16753621  0.98741457  0.18546162    -0.22000
C217        C  0.31610483  0.98152823  0.31210345    -0.22000
C218        C  0.28928988  0.97967451  0.33163566    -0.22000
C219        C  0.25896128  0.00197555  0.17100995    -0.17400
C220        C  0.33210909  0.99992651  0.25779963    -0.17400
C221        C  0.23909828  0.99558011  0.32721480    -0.17400
C222        C  0.16796160  0.00127523  0.24055993    -0.17400
H223        H  0.33476469  0.02592814  0.15515933     0.15500
H224        H  0.37442621  0.02509615  0.20174771     0.15500
H225        H  0.15017659  0.02415271  0.29709372     0.15500
H226        H  0.18846375  0.02078135  0.34400838     0.15500
H227        H  0.18887369  0.98041646  0.14171360     0.13800
H228        H  0.13979022  0.98165321  0.17947112     0.13800
H229        H  0.33795498  0.97557666  0.31803746     0.13800
H230        H  0.28617951  0.97154464  0.35541038     0.13800
H231        H  0.26402559  0.98679731  0.23275927     0.27100
H232        H  0.22029907  0.98395056  0.26492156     0.27100
N233        N  0.21575105  0.20862468  0.02809506    -0.35700
N234        N  0.21543429  0.22223593  0.46253015    -0.56200
N235        N  0.28444523  0.29318574  0.46999764    -0.35700
N236        N  0.28483219  0.27951437  0.03552681    -0.56200
C237        C  0.18156762  0.18012502  0.02050308     0.27900
C238        C  0.21736052  0.21099907  0.05908971     0.27900
C239        C  0.28292185  0.29047999  0.43902041     0.27900
C240        C  0.31885808  0.32133790  0.47752088     0.27900
C241        C  0.18203192  0.19066650  0.46399386     0.36500
C242        C  0.21949566  0.23438805  0.43341872     0.36500
C243        C  0.28035857  0.26785599  0.06483156     0.36500
C244        C  0.31792162  0.31150509  0.03415843     0.36500
C245        C  0.16180076  0.16352311  0.04705973    -0.21000
C246        C  0.18421944  0.18303717  0.07125951    -0.21000
C247        C  0.31633615  0.31785619  0.42678342    -0.21000
C248        C  0.33885583  0.33735580  0.45092865    -0.21000
C249        C  0.16453926  0.18284341  0.43574517    -0.22000
C250        C  0.18806191  0.21084467  0.41650402    -0.22000
C251        C  0.31125390  0.29216628  0.08195207    -0.22000
C252        C  0.33478995  0.32009527  0.06265645    -0.22000
C253        C  0.16657548  0.16918382  0.49055334    -0.17400
C254        C  0.24777751  0.23735335  0.07694726    -0.17400
C255        C  0.33373397  0.33263938  0.50746966    -0.17400
C256        C  0.25225932  0.26447224  0.42123651    -0.17400
H257        H  0.13359690  0.14034835  0.04892188     0.15500
H258        H  0.17670798  0.17742388  0.09514370     0.15500
H259        H  0.32393656  0.32311601  0.40289539     0.15500
H260        H  0.36724357  0.36016420  0.44901534     0.15500
H261        H  0.13739270  0.15981309  0.42970872     0.13800
H262        H  0.18238749  0.21381873  0.39289133     0.13800
H263        H  0.31660299  0.28977082  0.10575981     0.13800
H264        H  0.36154866  0.34361543  0.06884809     0.13800
H265        H  0.23743626  0.22392318  0.01305365     0.27100
H266        H  0.26253425  0.27847898  0.48501850     0.27100
N267        N  0.21542523  0.22186886  0.28527108    -0.35700
N268        N  0.21313786  0.21083694  0.21913037    -0.56200
N269        N  0.28457285  0.27922606  0.21309538    -0.35700
N270        N  0.28715603  0.28996257  0.27928478    -0.56200
C271        C  0.18602367  0.18677626  0.28340506     0.27900
C272        C  0.22586623  0.22815015  0.31501834     0.27900
C273        C  0.27368205  0.27319623  0.18344480     0.27900
C274        C  0.31333165  0.31465447  0.21509795     0.27900
C275        C  0.18073452  0.17989925  0.22644401     0.36500
C276        C  0.21641336  0.21071616  0.18833846     0.36500
C277        C  0.28422207  0.28984449  0.31009589     0.36500
C278        C  0.31970022  0.32069340  0.27198805     0.36500
C279        C  0.17732629  0.17082871  0.31220678    -0.21000
C280        C  0.20271609  0.19671919  0.33205100    -0.21000
C281        C  0.29580713  0.30517363  0.16663195    -0.21000
C282        C  0.32109132  0.33115140  0.18650578    -0.21000
C283        C  0.16334276  0.16013573  0.20006316    -0.22000
C284        C  0.18606866  0.17944883  0.17603675    -0.22000
C285        C  0.31500155  0.32068682  0.32243693    -0.22000
C286        C  0.33758966  0.34005788  0.29838194    -0.22000
C287        C  0.16700829  0.16817779  0.25650721    -0.17400
C288        C  0.25536817  0.26135175  0.32751114    -0.17400
C289        C  0.33285536  0.33284108  0.24192285    -0.17400
C290        C  0.24478412  0.23966250  0.17085925    -0.17400
H291        H  0.15575928  0.14291416  0.31816388     0.15500
H292        H  0.20483087  0.19221116  0.35609099     0.15500
H293        H  0.29308550  0.30990493  0.14274518     0.15500
H294        H  0.34202235  0.35939860  0.18073353     0.15500
H295        H  0.13706806  0.13431633  0.19821618     0.13800
H296        H  0.18039945  0.17176505  0.15217245     0.13800
H297        H  0.32091117  0.32817930  0.34631441     0.13800
H298        H  0.36398725  0.36576066  0.30019249     0.13800
H299        H  0.22563725  0.24132508  0.26774071     0.27100
H300        H  0.27528388  0.25940490  0.23036838     0.27100
C301        C  0.25663841  0.26548938  0.36056583    -0.12300
C302        C  0.25557952  0.26679415  0.38812171    -0.13900
C303        C  0.24443246  0.23477290  0.11011397    -0.12300
C304        C  0.24343405  0.23579284  0.13772422    -0.13900
C305        C  0.23656366  0.99683460  0.38790597    -0.12300
C306        C  0.23602525  0.99586233  0.36028965    -0.13900
C307        C  0.26306074  0.00366600  0.13795702    -0.12300
C308        C  0.26346110  0.00478685  0.11033913    -0.13900
C309        C  0.00027165  0.23877886  0.36115111    -0.12300
C310        C  0.00062478  0.23905113  0.38876943    -0.13900
C311        C  0.00042686  0.26227510  0.13876461    -0.12300
C312        C  0.00064822  0.26275970  0.11114725    -0.13900
N313        N  0.00219901  0.22046613  0.53653631    -0.35700
N314        N  0.50186411  0.29021436  0.52956885    -0.56200
N315        N  0.00444403  0.28424575  0.96332580    -0.35700
N316        N  0.00158536  0.21295093  0.97038274    -0.56200
C317        C  0.49466183  0.22580962  0.56557709     0.27900
C318        C  0.99450372  0.18474321  0.53433174     0.27900
C319        C  0.49781039  0.31298664  0.96549731     0.27900
C320        C  0.99656919  0.27139204  0.93427474     0.27900
C321        C  0.50657997  0.29079256  0.56024078     0.36500
C322        C  0.50789190  0.32432084  0.52163875     0.36500
C323        C  0.00550086  0.18355004  0.97827628     0.36500
C324        C  0.00576932  0.21657781  0.93966048     0.36500
C325        C  0.48238165  0.19314708  0.58208924    -0.21000
C326        C  0.98249717  0.16731862  0.56242325    -0.21000
C327        C  0.48613573  0.31890197  0.93744402    -0.21000
C328        C  0.98515306  0.29252727  0.91776298    -0.21000
C329        C  0.51521076  0.32527592  0.57193257    -0.22000
C330        C  0.51605684  0.34650919  0.54751792    -0.22000
C331        C  0.01173621  0.16818258  0.95224519    -0.22000
C332        C  0.01196305  0.18911541  0.92787187    -0.22000
C333        C  0.50078734  0.25990460  0.57805123    -0.17400
C334        C  0.00000349  0.16816986  0.50810427    -0.17400
C335        C  0.00124924  0.24247552  0.92184986    -0.17400
C336        C  0.50349930  0.33494130  0.49179227    -0.17400
H337        H  0.47418187  0.18834922  0.60587361     0.15500
H338        H  0.97474677  0.13899667  0.56826564     0.15500
H339        H  0.47892863  0.33993235  0.93177035     0.15500
H340        H  0.97680760  0.28923330  0.89400756     0.15500
H341        H  0.51992805  0.33406119  0.59562086     0.13800
H342        H  0.52155469  0.37489909  0.54876782     0.13800
H343        H  0.01483405  0.14381730  0.95071286     0.13800
H344        H  0.01544409  0.18414467  0.90411422     0.13800
H345        H  0.01580530  0.24110546  0.52024516     0.27100
H346        H  0.01744599  0.27658007  0.97973029     0.27100
N347        N  0.99706145  0.21739996  0.71333755    -0.35700
N348        N  0.99890425  0.28816327  0.72040379    -0.56200
N349        N  0.99777882  0.28061783  0.78659422    -0.35700
N350        N  0.99916224  0.21138505  0.77960215    -0.56200
C351        C  0.00460104  0.22997552  0.68423218     0.27900
C352        C  0.00355645  0.18859001  0.71549154     0.27900
C353        C  0.00534214  0.31629109  0.78434407     0.27900
C354        C  0.00562906  0.27551456  0.81560125     0.27900
C355        C  0.99492498  0.28451979  0.68965659     0.36500
C356        C  0.99446408  0.31727761  0.72826365     0.36500
C357        C  0.99336789  0.17735882  0.77163991     0.36500
C358        C  0.99418089  0.21071721  0.81023374     0.36500
C359        C  0.01569643  0.20858734  0.66765713    -0.21000
C360        C  0.01484776  0.18234386  0.68736932    -0.21000
C361        C  0.01753655  0.33391464  0.81238455    -0.21000
C362        C  0.01793092  0.30826440  0.83205921    -0.21000
C363        C  0.98834833  0.31168938  0.67783794    -0.22000
C364        C  0.98812421  0.33245356  0.70220033    -0.22000
C365        C  0.98507939  0.15513241  0.79746652    -0.22000
C366        C  0.98560283  0.17626131  0.82187758    -0.22000
C367        C  0.99979945  0.25880752  0.67183759    -0.17400
C368        C  0.99789798  0.16677124  0.74180407    -0.17400
C369        C  0.99983124  0.24156088  0.82807011    -0.17400
C370        C  0.99965951  0.33266087  0.75809280    -0.17400
H371        H  0.02367879  0.21158264  0.64383169     0.15500
H372        H  0.02178791  0.16112063  0.68165086     0.15500
H373        H  0.02528810  0.36226838  0.81817180     0.15500
H374        H  0.02634903  0.31323877  0.85580345     0.15500
H375        H  0.98485851  0.31655827  0.65406752     0.13800
H376        H  0.98463944  0.35658207  0.70064572     0.13800
H377        H  0.97967729  0.12677607  0.79868663     0.13800
H378        H  0.98071002  0.16742963  0.84553278     0.13800
H379        H  0.98429663  0.22524717  0.72981536     0.27100
H380        H  0.98410384  0.25986112  0.77034695     0.31700
O381        O  0.01712225  0.45464409  0.52033515    -0.87400
C382        C  0.06639773  0.03215093  0.95213189     0.88600
Mg383      Mg  0.45955046  0.41154230  0.51860645     1.58100
O384        O  0.04712783  0.06437400  0.52057496    -0.87100
O385        O  0.05697600  0.99939908  0.54979653    -0.74500
C386        C  0.36679715  0.99837549  0.98815780     0.93700
O387        O  0.99886424  0.44322550  0.94799729    -0.74300
O388        O  0.36547817  0.46762726  0.98266392    -0.81800
Mg389      Mg  0.04921180  0.46039327  0.97974580     1.58000
C390        C  0.49814343  0.13173585  0.51101700     0.93600
O391        O  0.10272121  0.47406741  0.50562054    -0.80000
H392        H  0.05463126  0.07520234  0.56538637    -0.05400
C393        C  0.46974420  0.03682037  0.95254651     0.88500
O394        O  0.44221959  0.44491352  0.54985960    -0.74600
O395        O  0.06400611  0.01812119  0.97752441    -0.87300
O396        O  0.02782214  0.13051771  0.50640216    -0.80100
C397        C  0.13049378  0.13429359  0.98809594     0.93700
C398        C  0.13356972  0.00389986  0.51002287     0.93600
Mg399      Mg  0.45157291  0.04203466  0.51891652     1.58000
O400        O  0.39699591  0.02796920  0.99477735    -0.80100
O401        O  0.50233658  0.05898396  0.55021701    -0.74300
O402        O  0.12985553  0.10383016  0.99338782    -0.80100
O403        O  0.03435516  0.40010953  0.98366811    -0.81800
O404        O  0.37066088  0.39787144  0.50307312    -0.80200
C405        C  0.03582454  0.06686019  0.54607973     0.88000
O406        O  0.43658262  0.48423825  0.52040560    -0.87300
O407        O  0.48343274  0.04801554  0.97810466    -0.87400
O408        O  0.44454304  0.50326834  0.94815702    -0.74500
Mg409      Mg  0.09012223  0.04989285  0.51830287     1.58000
O410        O  0.10108650  0.13597941  0.98382047    -0.81800
H411        H  0.02106789  0.44720016  0.56504831    -0.05600
O412        O  0.45370904  0.43739131  0.97747937    -0.87100
H413        H  0.44651166  0.42641059  0.93266964    -0.05400
H414        H  0.42531664  0.48035252  0.56513502    -0.05600
C415        C  0.46523548  0.43494168  0.95204178     0.88000
C416        C  0.03126779  0.46596064  0.54574685     0.88600
C417        C  0.43396738  0.47022531  0.54580421     0.88600
H418        H  0.48010820  0.05576281  0.93336516    -0.05600
O419        O  0.05819833  0.05756804  0.94824153    -0.74600
Mg420      Mg  0.41096734  0.45252400  0.97919751     1.58000
H421        H  0.07489008  0.02203185  0.93269279    -0.05600
C422        C  0.50365047  0.37053587  0.98879192     0.93600
O423        O  0.39923018  0.36612407  0.51524156    -0.81800
C424        C  0.36988845  0.36763448  0.50979765     0.93700
O425        O  0.13554232  0.03516657  0.51404309    -0.81800
Mg426      Mg  0.04108918  0.09072824  0.98021031     1.58200
O427        O  0.47369656  0.37085532  0.99455146    -0.80100
O428        O  0.46675400  0.10254367  0.51512192    -0.81800
O429        O  0.48364155  0.04728425  0.77069733    -0.87400
C430        C  0.43361624  0.46948302  0.70276543     0.88600
Mg431      Mg  0.04138015  0.08991649  0.76875069     1.58100
O432        O  0.45302576  0.43718467  0.77105874    -0.87100
O433        O  0.44393804  0.50285193  0.80037946    -0.74500
C434        C  0.13285249  0.00209831  0.73797628     0.93700
O435        O  0.50158364  0.05799702  0.69821973    -0.74300
O436        O  0.13434510  0.03296164  0.73287095    -0.81800
Mg437      Mg  0.45144855  0.04140930  0.73002194     1.58000
C438        C  0.50148759  0.36910392  0.76090215     0.93600
O439        O  0.39790689  0.02835021  0.75563558    -0.80000
H440        H  0.44580600  0.42614575  0.81583714    -0.05400
C441        C  0.02974457  0.46412105  0.70249750     0.88500
O442        O  0.05857807  0.05636461  0.79992257    -0.74600
O443        O  0.43632617  0.48367620  0.72815143    -0.87300
O444        O  0.47179634  0.37035687  0.75629361    -0.80100
C445        C  0.36883186  0.36774333  0.73900465     0.93700
C446        C  0.36707451  0.99862932  0.76036818     0.93600
Mg447      Mg  0.04832954  0.45876554  0.76871129     1.58000
O448        O  0.10251020  0.47243816  0.74406245    -0.80100
O449        O  0.99787801  0.44199068  0.80033708    -0.74300
O450        O  0.36973442  0.39838306  0.74407954    -0.80100
O451        O  0.46675465  0.10170784  0.73352158    -0.81800
O452        O  0.13009637  0.10260543  0.75373389    -0.80200
C453        C  0.46444883  0.43445917  0.79644161     0.88000
O454        O  0.06344570  0.01659075  0.77039199    -0.87300
O455        O  0.01620963  0.45282026  0.72806950    -0.87400
O456        O  0.05511417  0.99763710  0.69822489    -0.74500
Mg457      Mg  0.41025079  0.45223528  0.76898455     1.58000
O458        O  0.39808694  0.36578987  0.73461599    -0.81800
H459        H  0.48010880  0.05515053  0.81540484    -0.05600
O460        O  0.04674634  0.06378559  0.72765900    -0.87100
H461        H  0.05381377  0.07446707  0.68282552    -0.05400
H462        H  0.07499268  0.02051488  0.81508013    -0.05600
C463        C  0.03517621  0.06615746  0.70222646     0.88000
C464        C  0.46967482  0.03622690  0.79617332     0.88600
C465        C  0.06637815  0.03073237  0.79580802     0.88600
H466        H  0.01913476  0.44529860  0.68320873    -0.05600
O467        O  0.44146155  0.44383103  0.69881611    -0.74600
Mg468      Mg  0.08921879  0.04831886  0.72938904     1.58000
H469        H  0.42515791  0.47966951  0.68337390    -0.05600
C470        C  0.49753877  0.13112664  0.73881358     0.93600
O471        O  0.10178706  0.13491400  0.76473783    -0.81800
C472        C  0.13101438  0.13314913  0.75945235     0.93700
O473        O  0.36514957  0.46745910  0.76481363    -0.81800
Mg474      Mg  0.45839599  0.41047177  0.73054684     1.58200
O475        O  0.02731280  0.13061344  0.74491209    -0.80100
O476        O  0.03293662  0.39827876  0.76486268    -0.81800
N477        N  0.28986509  0.00367580  0.52862085    -0.35700
N478        N  0.28023167  0.99808167  0.96238412    -0.56200
N479        N  0.21202657  0.00130796  0.96953066    -0.35700
N480        N  0.21982414  0.00333483  0.53579667    -0.56200
C481        C  0.31636502  0.99533668  0.52038909     0.27900
C482        C  0.28474885  0.99832250  0.55920406     0.27900
C483        C  0.21042589  0.99357296  0.93927102     0.27900
C484        C  0.17797474  0.99508934  0.97812113     0.27900
C485        C  0.31525191  0.00370139  0.96403017     0.36500
C486        C  0.27474160  0.00395596  0.93295468     0.36500
C487        C  0.23208996  0.01081689  0.56497903     0.36500
C488        C  0.19067071  0.00931199  0.53383945     0.36500
C489        C  0.32863536  0.98510866  0.54620695    -0.21000
C490        C  0.30871837  0.98700417  0.57065109    -0.21000
C491        C  0.17505837  0.98274770  0.92830649    -0.21000
C492        C  0.15462824  0.98378097  0.95270568    -0.21000
C493        C  0.33200512  0.01273781  0.93554300    -0.22000
C494        C  0.30641800  0.01319179  0.91586479    -0.22000
C495        C  0.21044138  0.02140446  0.58168843    -0.22000
C496        C  0.18402423  0.02019020  0.56201407    -0.22000
C497        C  0.33161456  0.99912328  0.49065970    -0.17400
C498        C  0.26050153  0.00527952  0.57725011    -0.17400
C499        C  0.16843009  0.00247917  0.50752326    -0.17400
C500        C  0.24071413  0.99848583  0.92094777    -0.17400
H501        H  0.35005288  0.97745566  0.54741112     0.15500
H502        H  0.31182700  0.98107608  0.59422439     0.15500
H503        H  0.16516023  0.97552354  0.90501151     0.15500
H504        H  0.12602385  0.97763716  0.95146574     0.15500
H505        H  0.35980132  0.01860864  0.92962522     0.13800
H506        H  0.31077662  0.01983991  0.89179015     0.13800
H507        H  0.21333548  0.02918679  0.60555890     0.13800
H508        H  0.16229746  0.02634991  0.56789792     0.13800
H509        H  0.27903596  0.01630369  0.51481177     0.27100
H510        H  0.23610968  0.01438875  0.98260672     0.27100
N511        N  0.28808502  0.00010705  0.71968657    -0.35700
N512        N  0.21926697  0.00207581  0.71240714    -0.56200
N513        N  0.20972587  0.99698014  0.77859926    -0.35700
N514        N  0.28020647  0.99824308  0.78589762    -0.56200
C515        C  0.28947086  0.00748477  0.68938184     0.27900
C516        C  0.32236418  0.00701400  0.72836008     0.27900
C517        C  0.18337410  0.00546676  0.77026927     0.27900
C518        C  0.21500775  0.00269312  0.80914170     0.27900
C519        C  0.22481772  0.99621185  0.68298379     0.36500
C520        C  0.18425119  0.99646284  0.71398677     0.36500
C521        C  0.30961577  0.99265645  0.78400537     0.36500
C522        C  0.26762705  0.99024096  0.81495302     0.36500
C523        C  0.32495568  0.01879968  0.67846748    -0.21000
C524        C  0.34566872  0.01845410  0.70294633    -0.21000
C525        C  0.17141010  0.01623912  0.79598736    -0.21000
C526        C  0.19134580  0.01446803  0.82048184    -0.21000
C527        C  0.19315382  0.98694658  0.66582896    -0.22000
C528        C  0.16753812  0.98741749  0.68546152    -0.22000
C529        C  0.31610602  0.98152963  0.81210495    -0.22000
C530        C  0.28929098  0.97967610  0.83163690    -0.22000
C531        C  0.25896218  0.00197509  0.67101067    -0.17400
C532        C  0.33210976  0.99992592  0.75780079    -0.17400
C533        C  0.23909892  0.99558085  0.82721531    -0.17400
C534        C  0.16796171  0.00127457  0.74056043    -0.17400
H535        H  0.33476514  0.02592546  0.65516015     0.15500
H536        H  0.37442644  0.02509348  0.70174853     0.15500
H537        H  0.15017660  0.02415238  0.79709400     0.15500
H538        H  0.18846431  0.02078206  0.84400875     0.15500
H539        H  0.18887664  0.98042168  0.64171322     0.13800
H540        H  0.13979298  0.98165834  0.67947053     0.13800
H541        H  0.33795647  0.97557866  0.81803934     0.13800
H542        H  0.28618092  0.97154709  0.85541183     0.13800
H543        H  0.26402600  0.98679616  0.73276017     0.27100
H544        H  0.22029936  0.98395023  0.76492238     0.27100
N545        N  0.21575226  0.20862512  0.52809591    -0.35700
N546        N  0.21543390  0.22223521  0.96252949    -0.56200
N547        N  0.28444567  0.29318464  0.96999704    -0.35700
N548        N  0.28483252  0.27951530  0.53552758    -0.56200
C549        C  0.18156889  0.18012536  0.52050400     0.27900
C550        C  0.21736180  0.21099941  0.55909057     0.27900
C551        C  0.28292270  0.29047825  0.93901989     0.27900
C552        C  0.31885868  0.32133646  0.97752030     0.27900
C553        C  0.18203124  0.19066613  0.96399294     0.36500
C554        C  0.21949584  0.23438735  0.93341810     0.36500
C555        C  0.28035916  0.26785719  0.56483242     0.36500
C556        C  0.31792143  0.31150658  0.53415912     0.36500
C557        C  0.16180211  0.16352343  0.54706068    -0.21000
C558        C  0.18422079  0.18303743  0.57126043    -0.21000
C559        C  0.31633743  0.31785370  0.92678291    -0.21000
C560        C  0.33885696  0.33735357  0.95092812    -0.21000
C561        C  0.16453895  0.18284325  0.93574408    -0.22000
C562        C  0.18806216  0.21084439  0.91650313    -0.22000
C563        C  0.31125403  0.29216838  0.58195297    -0.22000
C564        C  0.33478959  0.32009748  0.56265721    -0.22000
C565        C  0.16657425  0.16918367  0.99055237    -0.17400
C566        C  0.24777870  0.23735382  0.57694808    -0.17400
C567        C  0.33373432  0.33263807  0.00746909    -0.17400
C568        C  0.25226016  0.26447063  0.92123604    -0.17400
H569        H  0.13359825  0.14034870  0.54892287     0.15500
H570        H  0.17670929  0.17742408  0.59514462     0.15500
H571        H  0.32393820  0.32311280  0.90289491     0.15500
H572        H  0.36724499  0.36016144  0.94901487     0.15500
H573        H  0.13739232  0.15981320  0.92970739     0.13800
H574        H  0.18238830  0.21381855  0.89289030     0.13800
H575        H  0.31660319  0.28977344  0.60576078     0.13800
H576        H  0.36154794  0.34361820  0.56884881     0.13800
H577        H  0.23743736  0.22392368  0.51305441     0.27100
H578        H  0.26253431  0.27847855  0.98501774     0.27100
N579        N  0.21542593  0.22186634  0.78527121    -0.35700
N580        N  0.21313794  0.21083534  0.71913068    -0.56200
N581        N  0.28457280  0.27922543  0.71309606    -0.35700
N582        N  0.28715689  0.28996039  0.77928517    -0.56200
C583        C  0.18602370  0.18677417  0.78340512     0.27900
C584        C  0.22586706  0.22814715  0.81501843     0.27900
C585        C  0.27368166  0.27319573  0.68344559     0.27900
C586        C  0.31333118  0.31465415  0.71509876     0.27900
C587        C  0.18073460  0.17989756  0.72644411     0.36500
C588        C  0.21641368  0.21071485  0.68833882     0.36500
C589        C  0.28422321  0.28984144  0.81009627     0.36500
C590        C  0.31970037  0.32069214  0.77198870     0.36500
C591        C  0.17732594  0.17082646  0.81220676    -0.21000
C592        C  0.20271624  0.19671635  0.83205103    -0.21000
C593        C  0.29580597  0.30517355  0.66663296    -0.21000
C594        C  0.32109013  0.33115143  0.68650679    -0.21000
C595        C  0.16334299  0.16013415  0.70006318    -0.22000
C596        C  0.18606909  0.17944750  0.67603690    -0.22000
C597        C  0.31500219  0.32068404  0.82243757    -0.22000
C598        C  0.33758964  0.34005630  0.79838273    -0.22000
C599        C  0.16700820  0.16817610  0.75650723    -0.17400
C600        C  0.25536953  0.26134829  0.82751124    -0.17400
C601        C  0.33285505  0.33284073  0.74192366    -0.17400
C602        C  0.24478436  0.23966165  0.67085989    -0.17400
H603        H  0.15575837  0.14291211  0.81816376     0.15500
H604        H  0.20483077  0.19220802  0.85609101     0.15500
H605        H  0.29308384  0.30990503  0.64274633     0.15500
H606        H  0.34202067  0.35939887  0.68073470     0.15500
H607        H  0.13706827  0.13431475  0.69821608     0.13800
H608        H  0.18040002  0.17176398  0.65217254     0.13800
H609        H  0.32091181  0.32817615  0.84631509     0.13800
H610        H  0.36398667  0.36575965  0.80019350     0.13800
H611        H  0.22563844  0.24132269  0.76774097     0.27100
H612        H  0.27528440  0.25940386  0.73036874     0.27100
C613        C  0.25663986  0.26548586  0.86056574    -0.12300
C614        C  0.25558100  0.26679148  0.88812145    -0.13900
C615        C  0.24443382  0.23477279  0.61011473    -0.12300
C616        C  0.24343491  0.23579216  0.63772494    -0.13900
C617        C  0.23656433  0.99683601  0.88790626    -0.12300
C618        C  0.23602587  0.99586342  0.86029003    -0.13900
C619        C  0.26306237  0.00366708  0.63795772    -0.12300
C620        C  0.26346339  0.00478903  0.61033982    -0.13900
C621        C  0.00027078  0.23877750  0.86115064    -0.12300
C622        C  0.00062564  0.23905090  0.88876887    -0.13900
C623        C  0.00043003  0.26227778  0.63876572    -0.12300
C624        C  0.00065184  0.26276236  0.61114843    -0.13900
N625        N  0.00219789  0.72046552  0.03653484    -0.35700
N626        N  0.50186639  0.79021567  0.02956770    -0.56200
N627        N  0.00443888  0.78424298  0.46332673    -0.35700
N628        N  0.00158218  0.71294922  0.47038360    -0.56200
C629        C  0.49465822  0.72580869  0.06557520     0.27900
C630        C  0.99450169  0.68474234  0.03432992     0.27900
C631        C  0.49780637  0.81298506  0.46549826     0.27900
C632        C  0.99656512  0.77139010  0.43427540     0.27900
C633        C  0.50658196  0.79079347  0.06023963     0.36500
C634        C  0.50789575  0.82432270  0.02163766     0.36500
C635        C  0.00549803  0.68354845  0.47827709     0.36500
C636        C  0.00576453  0.71657527  0.43966109     0.36500
C637        C  0.48237441  0.69314505  0.08208651    -0.21000
C638        C  0.98249214  0.66731672  0.06242071    -0.21000
C639        C  0.48613164  0.81890050  0.43744500    -0.21000
C640        C  0.98515015  0.79252618  0.41776348    -0.21000
C641        C  0.51521461  0.82527734  0.07193146    -0.22000
C642        C  0.51606179  0.84651122  0.04751683    -0.22000
C643        C  0.01173143  0.66817993  0.45224577    -0.22000
C644        C  0.01195711  0.68911216  0.42787239    -0.22000
C645        C  0.50078639  0.75990436  0.07804990    -0.17400
C646        C  0.00000419  0.66817004  0.00810306    -0.17400
C647        C  0.00124552  0.74247381  0.42185044    -0.17400
C648        C  0.50350208  0.83494276  0.99179141    -0.17400
H649        H  0.47417273  0.68834673  0.10587045     0.15500
H650        H  0.97474062  0.63899440  0.06826277     0.15500
H651        H  0.47892496  0.83993120  0.43177135     0.15500
H652        H  0.97680609  0.78923324  0.39400772     0.15500
H653        H  0.51993184  0.83406239  0.09561980     0.13800
H654        H  0.52156060  0.87490145  0.04876677     0.13800
H655        H  0.01482938  0.64381471  0.45071353     0.13800
H656        H  0.01543714  0.68414085  0.40411466     0.13800
H657        H  0.01580650  0.74110552  0.02024459     0.27100
H658        H  0.01744025  0.77657682  0.47973130     0.27100
N659        N  0.99706017  0.71739876  0.21333688    -0.35700
N660        N  0.99890558  0.78816344  0.22040275    -0.56200
N661        N  0.99778102  0.78061920  0.28659368    -0.35700
N662        N  0.99916426  0.71138636  0.27960217    -0.56200
C663        C  0.00459770  0.72997253  0.18423090     0.27900
C664        C  0.00355344  0.68858768  0.21549084     0.27900
C665        C  0.00534360  0.81629222  0.28434332     0.27900
C666        C  0.00563074  0.77551617  0.31560100     0.27900
C667        C  0.99492721  0.78452045  0.18965540     0.36500
C668        C  0.99446753  0.81727921  0.22826234     0.36500
C669        C  0.99337083  0.67736029  0.27164038     0.36500
C670        C  0.99418488  0.71071952  0.31023403     0.36500
C671        C  0.01568952  0.70858175  0.16765540    -0.21000
C672        C  0.01484103  0.68233869  0.18736794    -0.21000
C673        C  0.01753699  0.83391580  0.31238391    -0.21000
C674        C  0.01793154  0.80826589  0.33205885    -0.21000
C675        C  0.98835373  0.81169200  0.17783649    -0.22000
C676        C  0.98813033  0.83245669  0.20219871    -0.22000
C677        C  0.98508525  0.65513522  0.29746753    -0.22000
C678        C  0.98560930  0.67626458  0.32187840    -0.22000
C679        C  0.99979863  0.75880618  0.17183640    -0.17400
C680        C  0.99789785  0.66677099  0.24180422    -0.17400
C681        C  0.99983367  0.74156286  0.32807016    -0.17400
C682        C  0.99966153  0.83266190  0.25809167    -0.17400
H683        H  0.02366989  0.71157538  0.14382953     0.15500
H684        H  0.02177937  0.66111418  0.18164937     0.15500
H685        H  0.02528779  0.86226937  0.31817106     0.15500
H686        H  0.02634907  0.81324034  0.35580322     0.15500
H687        H  0.98486518  0.81656158  0.15406598     0.13800
H688        H  0.98464755  0.85658638  0.20064381     0.13800
H689        H  0.97968417  0.62677926  0.29868808     0.13800
H690        H  0.98071817  0.66743372  0.34553381     0.13800
H691        H  0.98429856  0.72524846  0.22981557     0.27100
H692        H  0.98410677  0.75986252  0.27034636     0.31700
O693        O  0.01712122  0.95464378  0.02033375    -0.87400
C694        C  0.06639877  0.53215099  0.45213344     0.88600
Mg695      Mg  0.45954998  0.91154198  0.01860556     1.58100
O696        O  0.04712642  0.56437391  0.02057347    -0.87100
O697        O  0.05697546  0.49939988  0.04979540    -0.74500
C698        C  0.36679769  0.49837578  0.48815851     0.93700
O699        O  0.99886465  0.94322542  0.44799851    -0.74300
O700        O  0.36547921  0.96762837  0.48266351    -0.81800
Mg701      Mg  0.04921193  0.96039226  0.47974718     1.58000
C702        C  0.49814281  0.63173590  0.01101570     0.93600
O703        O  0.10272061  0.97406808  0.00561856    -0.80000
H704        H  0.05462997  0.57520322  0.06538474    -0.05400
C705        C  0.46974516  0.53682162  0.45254868     0.88500
O706        O  0.44221845  0.94491341  0.04985812    -0.74600
O707        O  0.06400745  0.51812103  0.47752580    -0.87300
O708        O  0.02782146  0.63051682  0.00640183    -0.80100
C709        C  0.13049511  0.63429327  0.48809711     0.93700
C710        C  0.13356952  0.50390137  0.01002189     0.93600
Mg711      Mg  0.45157181  0.54203472  0.01891457     1.58000
O712        O  0.39699590  0.52796875  0.49478070    -0.80100
O713        O  0.50233549  0.55898471  0.05021507    -0.74300
O714        O  0.12985685  0.60382969  0.49338833    -0.80100
O715        O  0.03435384  0.90010798  0.48367033    -0.81800
O716        O  0.37066025  0.89787069  0.00307339    -0.80200
C717        C  0.03582317  0.56686059  0.04607812     0.88000
O718        O  0.43658247  0.98423843  0.02040385    -0.87300
O719        O  0.48343341  0.54801601  0.47810698    -0.87400
O720        O  0.44454425  0.00326973  0.44815814    -0.74500
Mg721      Mg  0.09012124  0.54989343  0.01830159     1.58000
O722        O  0.10108782  0.63597933  0.48382255    -0.81800
H723        H  0.02106680  0.94720016  0.06504695    -0.05600
O724        O  0.45370999  0.93739240  0.47748016    -0.87100
H725        H  0.44651304  0.92641197  0.43267036    -0.05400
H726        H  0.42531592  0.98035296  0.06513314    -0.05600
C727        C  0.46523658  0.93494267  0.45204266     0.88000
C728        C  0.03126658  0.96596057  0.04574544     0.88600
C729        C  0.43396681  0.97022557  0.04580252     0.88600
H730        H  0.48010927  0.55576466  0.43336771    -0.05600
O731        O  0.05819941  0.55756822  0.44824358    -0.74600
Mg732      Mg  0.41096828  0.95252503  0.47919803     1.58000
H733        H  0.07489096  0.52203215  0.43269408    -0.05600
C734        C  0.50364918  0.87053549  0.48879249     0.93600
O735        O  0.39922979  0.86612319  0.01524073    -0.81800
C736        C  0.36988795  0.86763361  0.00979738     0.93700
O737        O  0.13554203  0.53516801  0.01404218    -0.81800
Mg738      Mg  0.04109048  0.59072853  0.48021251     1.58200
O739        O  0.47369515  0.87085551  0.49454993    -0.80100
O740        O  0.46675303  0.60254387  0.01511990    -0.81800
O741        O  0.48364036  0.54728338  0.27069674    -0.87400
C742        C  0.43361507  0.96948270  0.20276361     0.88600
Mg743      Mg  0.04137904  0.58991594  0.26875101     1.58100
O744        O  0.45302524  0.93718517  0.27105697    -0.87100
O745        O  0.44393629  0.00285170  0.30037778    -0.74500
C746        C  0.13285291  0.50209985  0.23797602     0.93700
O747        O  0.50158331  0.55799709  0.19821961    -0.74300
O748        O  0.13434532  0.53296299  0.23287013    -0.81800
Mg749      Mg  0.45144791  0.54140935  0.23002129     1.58000
C750        C  0.50148789  0.86910462  0.26090063     0.93600
O751        O  0.39790601  0.52835011  0.25563449    -0.80000
H752        H  0.44580527  0.92614659  0.31583538    -0.05400
C753        C  0.02974523  0.96412207  0.20249623     0.88500
O754        O  0.05857658  0.55636384  0.29992281    -0.74600
O755        O  0.43632501  0.98367589  0.22814959    -0.87300
O756        O  0.47179670  0.87035745  0.25629138    -0.80100
C757        C  0.36883186  0.86774288  0.23900408     0.93700
C758        C  0.36707338  0.49862923  0.26036629     0.93600
Mg759      Mg  0.04832918  0.95876611  0.26871038     1.58000
O760        O  0.10251029  0.97243894  0.24406247    -0.80100
O761        O  0.99787704  0.94199093  0.30033571    -0.74300
O762        O  0.36973391  0.89838249  0.24407829    -0.80100
O763        O  0.46675421  0.60170785  0.23352220    -0.81800
O764        O  0.13009594  0.60260639  0.25373345    -0.80200
C765        C  0.46444821  0.93445985  0.29643993     0.88000
O766        O  0.06344545  0.51659123  0.27039161    -0.87300
O767        O  0.01620968  0.95282104  0.22806805    -0.87400
O768        O  0.05511432  0.49763825  0.19822430    -0.74500
Mg769      Mg  0.41024977  0.95223512  0.26898271     1.58000
O770        O  0.39808714  0.86578993  0.23461494    -0.81800
H771        H  0.48010608  0.55514977  0.31540400    -0.05600
O772        O  0.04674597  0.56378581  0.22765913    -0.87100
H773        H  0.05381335  0.57446654  0.18282560    -0.05400
H774        H  0.07499173  0.52051435  0.31507983    -0.05600
C775        C  0.03517577  0.56615724  0.20222650     0.88000
C776        C  0.46967269  0.53622615  0.29617245     0.88600
C777        C  0.06637734  0.53073216  0.29580786     0.88600
H778        H  0.01913586  0.94529983  0.18320731    -0.05600
O779        O  0.44146083  0.94383102  0.19881429    -0.74600
Mg780      Mg  0.08921864  0.54831972  0.22938874     1.58000
H781        H  0.42515640  0.97966892  0.18337211    -0.05600
C782        C  0.49753842  0.63112650  0.23881421     0.93600
O783        O  0.10178620  0.63491415  0.26473895    -0.81800
C784        C  0.13101368  0.63314978  0.25945271     0.93700
O785        O  0.36514844  0.96745884  0.26481123    -0.81800
Mg786      Mg  0.45839597  0.91047232  0.23054513     1.58200
O787        O  0.02731221  0.63061286  0.24491233    -0.80100
O788        O  0.03293718  0.89827970  0.26486224    -0.81800
N789        N  0.28986205  0.50367196  0.02862003    -0.35700
N790        N  0.28023071  0.49807918  0.46238424    -0.56200
N791        N  0.21202586  0.50130546  0.46953083    -0.35700
N792        N  0.21982278  0.50333447  0.03579588    -0.56200
C793        C  0.31636234  0.49533333  0.02038825     0.27900
C794        C  0.28474514  0.49831778  0.05920311     0.27900
C795        C  0.21042518  0.49357190  0.43927088     0.27900
C796        C  0.17797478  0.49508866  0.47812147     0.27900
C797        C  0.31525113  0.50369923  0.46403024     0.36500
C798        C  0.27474007  0.50395230  0.43295454     0.36500
C799        C  0.23208792  0.51081481  0.06497843     0.36500
C800        C  0.19067003  0.50931268  0.03383886     0.36500
C801        C  0.32863188  0.48510422  0.04620595    -0.21000
C802        C  0.30871415  0.48699872  0.07065001    -0.21000
C803        C  0.17505829  0.48274948  0.42830630    -0.21000
C804        C  0.15462861  0.48378292  0.45270581    -0.21000
C805        C  0.33200365  0.51273425  0.43554280    -0.22000
C806        C  0.30641615  0.51318734  0.41586453    -0.22000
C807        C  0.21043952  0.52140232  0.08168820    -0.22000
C808        C  0.18402320  0.52018984  0.06201380    -0.22000
C809        C  0.33161329  0.49912211  0.99065916    -0.17400
C810        C  0.26049857  0.50527579  0.07724927    -0.17400
C811        C  0.16842982  0.50248052  0.00752262    -0.17400
C812        C  0.24071294  0.49848337  0.42094758    -0.17400
H813        H  0.35004972  0.47745166  0.04741016     0.15500
H814        H  0.31182241  0.48107012  0.09422324     0.15500
H815        H  0.16516032  0.47552711  0.40501112     0.15500
H816        H  0.12602488  0.47764124  0.45146600     0.15500
H817        H  0.35979986  0.51860526  0.42962492     0.13800
H818        H  0.31077456  0.51983500  0.39178983     0.13800
H819        H  0.21333300  0.52918311  0.10555900     0.13800
H820        H  0.16229649  0.52634956  0.06789791     0.13800
H821        H  0.27903361  0.51630079  0.01481134     0.27100
H822        H  0.23610866  0.51438391  0.48260733     0.27100
N823        N  0.28808461  0.50010898  0.21968564    -0.35700
N824        N  0.21926706  0.50207785  0.21240618    -0.56200
N825        N  0.20972613  0.49698100  0.27859856    -0.35700
N826        N  0.28020588  0.49824306  0.28589676    -0.56200
C827        C  0.28947033  0.50748676  0.18938095     0.27900
C828        C  0.32236377  0.50701599  0.22835904     0.27900
C829        C  0.18337503  0.50546862  0.27026864     0.27900
C830        C  0.21500791  0.50269346  0.30914109     0.27900
C831        C  0.22481682  0.49621205  0.18298309     0.36500
C832        C  0.18425085  0.49646350  0.21398629     0.36500
C833        C  0.30961496  0.49265621  0.28400400     0.36500
C834        C  0.26762634  0.49024010  0.31495208     0.36500
C835        C  0.32495524  0.51880238  0.17846655    -0.21000
C836        C  0.34566838  0.51845682  0.20294533    -0.21000
C837        C  0.17141151  0.51624128  0.29598681    -0.21000
C838        C  0.19134665  0.51446915  0.32048130    -0.21000
C839        C  0.19315194  0.48694436  0.16582883    -0.22000
C840        C  0.16753649  0.48741551  0.18546157    -0.22000
C841        C  0.31610495  0.48152829  0.31210320    -0.22000
C842        C  0.28928992  0.47967433  0.33163545    -0.22000
C843        C  0.25896116  0.50197542  0.17100978    -0.17400
C844        C  0.33210902  0.49992650  0.25779936    -0.17400
C845        C  0.23909842  0.49558010  0.32721469    -0.17400
C846        C  0.16796217  0.50127622  0.24055994    -0.17400
H847        H  0.33476454  0.52592825  0.15515919     0.15500
H848        H  0.37442614  0.52509635  0.20174744     0.15500
H849        H  0.15017851  0.52415519  0.29709354     0.15500
H850        H  0.18846523  0.52078304  0.34400826     0.15500
H851        H  0.18887391  0.48041759  0.14171343     0.13800
H852        H  0.13979062  0.48165456  0.17947109     0.13800
H853        H  0.33795523  0.47557689  0.31803713     0.13800
H854        H  0.28617963  0.47154442  0.35541017     0.13800
H855        H  0.26402550  0.48679725  0.23275912     0.27100
H856        H  0.22029891  0.48395053  0.26492152     0.27100
N857        N  0.21575096  0.70862457  0.02809538    -0.35700
N858        N  0.21543437  0.72223542  0.46253016    -0.56200
N859        N  0.28444536  0.79318537  0.46999748    -0.35700
N860        N  0.28483120  0.77951484  0.03552720    -0.56200
C861        C  0.18156731  0.68012533  0.02050337     0.27900
C862        C  0.21736020  0.71099913  0.05909004     0.27900
C863        C  0.28292194  0.79047942  0.43902028     0.27900
C864        C  0.31885827  0.82133744  0.47752063     0.27900
C865        C  0.18203194  0.69066608  0.46399387     0.36500
C866        C  0.21949557  0.73438774  0.43341883     0.36500
C867        C  0.28035822  0.76785587  0.06483178     0.36500
C868        C  0.31792088  0.81150531  0.03415865     0.36500
C869        C  0.16180008  0.66352389  0.04705997    -0.21000
C870        C  0.18421875  0.68303777  0.07125980    -0.21000
C871        C  0.31633625  0.81785550  0.42678319    -0.21000
C872        C  0.33885601  0.83735514  0.45092837    -0.21000
C873        C  0.16453905  0.68284326  0.43574528    -0.22000
C874        C  0.18806164  0.71084462  0.41650420    -0.22000
C875        C  0.31125403  0.79216566  0.08195202    -0.22000
C876        C  0.33478981  0.82009487  0.06265644    -0.22000
C877        C  0.16657564  0.66918329  0.49055329    -0.17400
C878        C  0.24777736  0.73735309  0.07694758    -0.17400
C879        C  0.33373418  0.83263913  0.50746939    -0.17400
C880        C  0.25225938  0.76447155  0.42123654    -0.17400
H881        H  0.13359598  0.64034956  0.04892202     0.15500
H882        H  0.17670699  0.67742477  0.09514397     0.15500
H883        H  0.32393661  0.82311521  0.40289515     0.15500
H884        H  0.36724380  0.86016344  0.44901501     0.15500
H885        H  0.13739239  0.65981306  0.42970886     0.13800
H886        H  0.18238717  0.71381884  0.39289154     0.13800
H887        H  0.31660374  0.78976963  0.10575949     0.13800
H888        H  0.36154887  0.84361463  0.06884791     0.13800
H889        H  0.23743641  0.72392252  0.01305400     0.27100
H890        H  0.26253432  0.77847879  0.48501835     0.27100
N891        N  0.21542501  0.72186731  0.28527144    -0.35700
N892        N  0.21313728  0.71083586  0.21913067    -0.56200
N893        N  0.28457295  0.77922477  0.21309583    -0.35700
N894        N  0.28715594  0.78996112  0.27928511    -0.56200
C895        C  0.18602294  0.68677505  0.28340538     0.27900
C896        C  0.22586600  0.72814835  0.31501868     0.27900
C897        C  0.27368246  0.77319477  0.18344518     0.27900
C898        C  0.31333209  0.81465307  0.21509835     0.27900
C899        C  0.18073371  0.67989838  0.22644427     0.36500
C900        C  0.21641295  0.71071507  0.18833878     0.36500
C901        C  0.28422224  0.78984250  0.31009625     0.36500
C902        C  0.31970013  0.82069202  0.27198849     0.36500
C903        C  0.17732524  0.67082739  0.31220708    -0.21000
C904        C  0.20271534  0.69671753  0.33205135    -0.21000
C905        C  0.29580821  0.80517189  0.16663223    -0.21000
C906        C  0.32109240  0.83114966  0.18650605    -0.21000
C907        C  0.16334190  0.66013494  0.20006339    -0.22000
C908        C  0.18606804  0.67944791  0.17603701    -0.22000
C909        C  0.31500190  0.82068454  0.32243741    -0.22000
C910        C  0.33758978  0.84005600  0.29838247    -0.22000
C911        C  0.16700736  0.66817699  0.25650749    -0.17400
C912        C  0.25536830  0.76134971  0.32751143    -0.17400
C913        C  0.33285530  0.83284005  0.24192336    -0.17400
C914        C  0.24478415  0.73966120  0.17085964    -0.17400
H915        H  0.15575774  0.64291302  0.31816412     0.15500
H916        H  0.20482985  0.69220941  0.35609139     0.15500
H917        H  0.29308692  0.80990311  0.14274539     0.15500
H918        H  0.34202375  0.85939670  0.18073370     0.15500
H919        H  0.13706705  0.63431568  0.19821638     0.13800
H920        H  0.18039892  0.67176415  0.15217269     0.13800
H921        H  0.32091184  0.82817656  0.34631492     0.13800
H922        H  0.36398750  0.86575862  0.30019314     0.13800
H923        H  0.22563740  0.74132355  0.26774110     0.27100
H924        H  0.27528333  0.75940375  0.23036895     0.27100
C925        C  0.25663859  0.76548740  0.36056603    -0.12300
C926        C  0.25557974  0.76679274  0.38812183    -0.13900
C927        C  0.24443263  0.73477218  0.11011431    -0.12300
C928        C  0.24343418  0.73579163  0.13772459    -0.13900
C929        C  0.23656331  0.49683407  0.38790589    -0.12300
C930        C  0.23602514  0.49586196  0.36028956    -0.13900
C931        C  0.26306045  0.50366517  0.13795683    -0.12300
C932        C  0.26346087  0.50478570  0.11033891    -0.13900
C933        C  0.00027165  0.73877917  0.36115090    -0.12300
C934        C  0.00062436  0.73905099  0.38876924    -0.13900
C935        C  0.00042899  0.76227629  0.13876441    -0.12300
C936        C  0.00065046  0.76276100  0.11114706    -0.13900
N937        N  0.00219834  0.72046545  0.53653622    -0.35700
N938        N  0.50186311  0.79021418  0.52956923    -0.56200
N939        N  0.00444417  0.78424548  0.96332560    -0.35700
N940        N  0.00158657  0.71295122  0.97038290    -0.56200
C941        C  0.49465990  0.72580905  0.56557706     0.27900
C942        C  0.99450327  0.68474263  0.53433154     0.27900
C943        C  0.49781045  0.81298648  0.96549707     0.27900
C944        C  0.99656934  0.77139144  0.93427463     0.27900
C945        C  0.50657991  0.79079257  0.56024104     0.36500
C946        C  0.50789216  0.82432110  0.52163909     0.36500
C947        C  0.00550254  0.68355063  0.97827661     0.36500
C948        C  0.00577111  0.71657831  0.93966069     0.36500
C949        C  0.48237874  0.69314617  0.58208893    -0.21000
C950        C  0.98249663  0.66731787  0.56242298    -0.21000
C951        C  0.48613376  0.81890019  0.93744412    -0.21000
C952        C  0.98515224  0.79252584  0.91776281    -0.21000
C953        C  0.51521257  0.82527650  0.57193276    -0.22000
C954        C  0.51605889  0.84650996  0.54751814    -0.22000
C955        C  0.01173883  0.66818360  0.95224571    -0.22000
C956        C  0.01196580  0.68911642  0.92787233    -0.22000
C957        C  0.50078645  0.75990428  0.57805141    -0.17400
C958        C  0.00000341  0.66816957  0.50810406    -0.17400
C959        C  0.00125034  0.74247545  0.92184988    -0.17400
C960        C  0.50349882  0.83494137  0.49179276    -0.17400
H961        H  0.47417866  0.68834823  0.60587323     0.15500
H962        H  0.97474639  0.63899595  0.56826530     0.15500
H963        H  0.47892530  0.83992962  0.93177058     0.15500
H964        H  0.97680667  0.78923155  0.89400740     0.15500
H965        H  0.51993092  0.83406204  0.59562098     0.13800
H966        H  0.52155801  0.87490031  0.54876798     0.13800
H967        H  0.01483726  0.64381866  0.95071355     0.13800
H968        H  0.01544752  0.68414600  0.90411476     0.13800
H969        H  0.01580461  0.74110485  0.52024512     0.27100
H970        H  0.01744675  0.77658046  0.97973005     0.27100
N971        N  0.99706093  0.71739929  0.71333748    -0.35700
N972        N  0.99890370  0.78816241  0.72040386    -0.56200
N973        N  0.99777884  0.78061717  0.78659427    -0.35700
N974        N  0.99916182  0.71138436  0.77960213    -0.56200
C975        C  0.00460025  0.72997467  0.68423205     0.27900
C976        C  0.00355600  0.68858939  0.71549141     0.27900
C977        C  0.00534249  0.81629056  0.78434414     0.27900
C978        C  0.00562911  0.77551385  0.81560129     0.27900
C979        C  0.99492462  0.78451916  0.68965663     0.36500
C980        C  0.99446421  0.81727716  0.72826377     0.36500
C981        C  0.99336802  0.67735836  0.77163989     0.36500
C982        C  0.99418094  0.71071658  0.81023377     0.36500
C983        C  0.01569557  0.70858648  0.66765691    -0.21000
C984        C  0.01484709  0.68234312  0.68736913    -0.21000
C985        C  0.01753718  0.83391411  0.81238458    -0.21000
C986        C  0.01793134  0.80826375  0.83205921    -0.21000
C987        C  0.98834880  0.81168931  0.67783803    -0.22000
C988        C  0.98812499  0.83245360  0.70220043    -0.22000
C989        C  0.98508032  0.65513215  0.79746653    -0.22000
C990        C  0.98560369  0.67626094  0.82187762    -0.22000
C991        C  0.99979867  0.75880669  0.67183753    -0.17400
C992        C  0.99789788  0.66677081  0.74180399    -0.17400
C993        C  0.99983127  0.74156018  0.82807015    -0.17400
C994        C  0.99965976  0.83266038  0.75809295    -0.17400
H995        H  0.02367780  0.71158173  0.64383143     0.15500
H996        H  0.02178724  0.66111988  0.68165067     0.15500
H997        H  0.02528899  0.86226790  0.81817185     0.15500
H998        H  0.02634958  0.81323805  0.85580343     0.15500
H999        H  0.98485946  0.81655857  0.65406760     0.13800
H1000       H  0.98464095  0.85658255  0.70064579     0.13800
H1001       H  0.97967884  0.62677603  0.79868669     0.13800
H1002       H  0.98071152  0.66742940  0.84553285     0.13800
H1003       H  0.98429627  0.72524657  0.72981536     0.27100
H1004       H  0.98410355  0.75986045  0.77034709     0.31700
O1005       O  0.01712220  0.95464393  0.52033514    -0.87400
C1006       C  0.06639851  0.53215136  0.95213220     0.88600
Mg1007     Mg  0.45955070  0.91154253  0.51860640     1.58100
O1008       O  0.04712773  0.56437395  0.52057496    -0.87100
O1009       O  0.05697601  0.49939932  0.54979650    -0.74500
C1010       C  0.36679676  0.49837478  0.98815766     0.93700
O1011       O  0.99886326  0.94322532  0.94799703    -0.74300
O1012       O  0.36547808  0.96762763  0.98266476    -0.81800
Mg1013     Mg  0.04921093  0.96039277  0.97974531     1.58000
C1014       C  0.49814272  0.63173592  0.51101708     0.93600
O1015       O  0.10272125  0.97406721  0.50562094    -0.80000
H1016       H  0.05463108  0.57520211  0.56538641    -0.05400
C1017       C  0.46974426  0.53682040  0.95254668     0.88500
O1018       O  0.44221975  0.94491363  0.54985962    -0.74600
O1019       O  0.06400679  0.51812149  0.97752467    -0.87300
O1020       O  0.02782230  0.63051758  0.50640304    -0.80100
C1021       C  0.13049380  0.63429364  0.98809620     0.93700
C1022       C  0.13356968  0.50389996  0.51002268     0.93600
Mg1023     Mg  0.45157239  0.54203467  0.51891648     1.58000
O1024       O  0.39699513  0.52796832  0.99477847    -0.80100
O1025       O  0.50233599  0.55898373  0.55021701    -0.74300
O1026       O  0.12985575  0.60383015  0.99338720    -0.80100
O1027       O  0.03435404  0.90010884  0.98366744    -0.81800
O1028       O  0.37066089  0.89787121  0.50307248    -0.80200
C1029       C  0.03582440  0.56686006  0.54607974     0.88000
O1030       O  0.43658295  0.98423826  0.52040543    -0.87300
O1031       O  0.48343261  0.54801554  0.97810488    -0.87400
O1032       O  0.44454268  0.00326836  0.94815697    -0.74500
Mg1033     Mg  0.09012212  0.54989285  0.51830268     1.58000
O1034       O  0.10108642  0.63597942  0.98382136    -0.81800
H1035       H  0.02106791  0.94719985  0.56504824    -0.05600
O1036       O  0.45370838  0.93739100  0.97747907    -0.87100
H1037       H  0.44651128  0.92641089  0.93266925    -0.05400
H1038       H  0.42531653  0.98035257  0.56513474    -0.05600
C1039       C  0.46523501  0.93494181  0.95204144     0.88000
C1040       C  0.03126777  0.96596040  0.54574683     0.88600
C1041       C  0.43396750  0.97022535  0.54580406     0.88600
H1042       H  0.48010825  0.55576292  0.93336538    -0.05600
O1043       O  0.05819904  0.55756845  0.94824196    -0.74600
Mg1044     Mg  0.41096689  0.95252405  0.97919763     1.58000
H1045       H  0.07489108  0.52203252  0.93269307    -0.05600
C1046       C  0.50365040  0.87053593  0.98879126     0.93600
O1047       O  0.39923036  0.86612417  0.51524142    -0.81800
C1048       C  0.36988857  0.86763436  0.50979728     0.93700
O1049       O  0.13554234  0.53516669  0.51404288    -0.81800
Mg1050     Mg  0.04108947  0.59072828  0.98021084     1.58200
O1051       O  0.47369624  0.87085488  0.99455100    -0.80100
O1052       O  0.46675329  0.60254358  0.51512154    -0.81800
O1053       O  0.48364142  0.54728423  0.77069807    -0.87400
C1054       C  0.43361684  0.96948290  0.70276462     0.88600
Mg1055     Mg  0.04138036  0.58991658  0.76875091     1.58100
O1056       O  0.45302596  0.93718458  0.77105809    -0.87100
O1057       O  0.44393827  0.00285173  0.80037859    -0.74500
C1058       C  0.13285257  0.50209869  0.73797583     0.93700
O1059       O  0.50158311  0.55799676  0.69822036    -0.74300
O1060       O  0.13434542  0.53296221  0.73287093    -0.81800
Mg1061     Mg  0.45144822  0.54140922  0.73002270     1.58000
C1062       C  0.50148763  0.86910368  0.76090240     0.93600
O1063       O  0.39790657  0.52835027  0.75563644    -0.80000
H1064       H  0.44580548  0.92614571  0.81583644    -0.05400
C1065       C  0.02974508  0.96412059  0.70249735     0.88500
O1066       O  0.05857849  0.55636478  0.79992275    -0.74600
O1067       O  0.43632652  0.98367618  0.72815054    -0.87300
O1068       O  0.47179646  0.87035654  0.75629317    -0.80100
C1069       C  0.36883203  0.86774330  0.73900427     0.93700
C1070       C  0.36707417  0.49862929  0.76036878     0.93600
Mg1071     Mg  0.04832921  0.95876511  0.76871169     1.58000
O1072       O  0.10251038  0.97243793  0.74406378    -0.80100
O1073       O  0.99787729  0.94199008  0.80033697    -0.74300
O1074       O  0.36973470  0.89838320  0.74407843    -0.80100
O1075       O  0.46675447  0.60170774  0.73352200    -0.81800
O1076       O  0.13009672  0.60260602  0.75373340    -0.80200
C1077       C  0.46444864  0.93445911  0.79644114     0.88000
O1078       O  0.06344626  0.51659119  0.77039198    -0.87300
O1079       O  0.01620991  0.95281960  0.72806926    -0.87400
O1080       O  0.05511399  0.49763739  0.69822491    -0.74500
Mg1081     Mg  0.41025104  0.95223520  0.76898366     1.58000
O1082       O  0.39808706  0.86578963  0.73461598    -0.81800
H1083       H  0.48010882  0.55515076  0.81540556    -0.05600
O1084       O  0.04674653  0.56378581  0.72765908    -0.87100
H1085       H  0.05381353  0.57446645  0.68282549    -0.05400
H1086       H  0.07499329  0.52051512  0.81508012    -0.05600
C1087       C  0.03517610  0.56615709  0.70222651     0.88000
C1088       C  0.46967472  0.53622704  0.79617410     0.88600
C1089       C  0.06637871  0.53073267  0.79580807     0.88600
H1090       H  0.01913566  0.94529817  0.68320854    -0.05600
O1091       O  0.44146198  0.94383073  0.69881559    -0.74600
Mg1092     Mg  0.08921902  0.54831924  0.72938893     1.58000
H1093       H  0.42515881  0.97966939  0.68337289    -0.05600
C1094       C  0.49753862  0.63112648  0.73881400     0.93600
O1095       O  0.10178730  0.63491432  0.76473806    -0.81800
C1096       C  0.13101465  0.63314959  0.75945224     0.93700
O1097       O  0.36514982  0.96745908  0.76481294    -0.81800
Mg1098     Mg  0.45839616  0.91047137  0.73054648     1.58200
O1099       O  0.02731281  0.63061332  0.74491266    -0.80100
O1100       O  0.03293650  0.89827827  0.76486360    -0.81800
N1101       N  0.28986500  0.50367602  0.52862102    -0.35700
N1102       N  0.28023106  0.49808068  0.96238390    -0.56200
N1103       N  0.21202627  0.50130732  0.96953068    -0.35700
N1104       N  0.21982398  0.50333479  0.53579675    -0.56200
C1105       C  0.31636506  0.49533706  0.52038931     0.27900
C1106       C  0.28474905  0.49832315  0.55920429     0.27900
C1107       C  0.21042533  0.49357222  0.93927106     0.27900
C1108       C  0.17797468  0.49508921  0.97812127     0.27900
C1109       C  0.31525140  0.50370066  0.96402992     0.36500
C1110       C  0.27474098  0.50395524  0.93295453     0.36500
C1111       C  0.23208948  0.51081654  0.56497922     0.36500
C1112       C  0.19067035  0.50931165  0.53383950     0.36500
C1113       C  0.32863579  0.48510959  0.54620728    -0.21000
C1114       C  0.30871891  0.48700530  0.57065143    -0.21000
C1115       C  0.17505781  0.48274727  0.92830666    -0.21000
C1116       C  0.15462800  0.48378096  0.95270594    -0.21000
C1117       C  0.33200470  0.51273751  0.93554280    -0.22000
C1118       C  0.30641749  0.51319144  0.91586466    -0.22000
C1119       C  0.21044040  0.52140340  0.58168867    -0.22000
C1120       C  0.18402341  0.52018924  0.56201421    -0.22000
C1121       C  0.33161437  0.49912336  0.49065986    -0.17400
C1122       C  0.26050156  0.50527994  0.57725030    -0.17400
C1123       C  0.16842995  0.50247909  0.50752322    -0.17400
C1124       C  0.24071349  0.49848515  0.92094770    -0.17400
H1125       H  0.35005350  0.47745684  0.54741151     0.15500
H1126       H  0.31182775  0.48107761  0.59422479     0.15500
H1127       H  0.16515952  0.47552320  0.90501172     0.15500
H1128       H  0.12602377  0.47763766  0.95146615     0.15500
H1129       H  0.35980095  0.51860853  0.92962499     0.13800
H1130       H  0.31077608  0.51983976  0.89179006     0.13800
H1131       H  0.21333414  0.52918533  0.60555923     0.13800
H1132       H  0.16229642  0.52634863  0.56789805     0.13800
H1133       H  0.27903558  0.51630352  0.51481180     0.27100
H1134       H  0.23610946  0.51438800  0.98260663     0.27100
N1135       N  0.28808509  0.50010754  0.71968685    -0.35700
N1136       N  0.21926739  0.50207682  0.71240723    -0.56200
N1137       N  0.20972549  0.49698021  0.77859926    -0.35700
N1138       N  0.28020563  0.49824233  0.78589772    -0.56200
C1139       C  0.28947154  0.50748647  0.68938231     0.27900
C1140       C  0.32236426  0.50701477  0.72836064     0.27900
C1141       C  0.18337409  0.50546725  0.77026913     0.27900
C1142       C  0.21500742  0.50269335  0.80914166     0.27900
C1143       C  0.22481819  0.49621248  0.68298399     0.36500
C1144       C  0.18425116  0.49646262  0.71398684     0.36500
C1145       C  0.30961479  0.49265549  0.78400555     0.36500
C1146       C  0.26762606  0.49024021  0.81495308     0.36500
C1147       C  0.32495675  0.51880255  0.67846837    -0.21000
C1148       C  0.34566941  0.51845631  0.70294726    -0.21000
C1149       C  0.17141034  0.51624005  0.79598712    -0.21000
C1150       C  0.19134586  0.51446880  0.82048169    -0.21000
C1151       C  0.19315389  0.48694572  0.66582923    -0.22000
C1152       C  0.16753781  0.48741601  0.68546173    -0.22000
C1153       C  0.31610470  0.48152835  0.81210512    -0.22000
C1154       C  0.28928969  0.47967500  0.83163704    -0.22000
C1155       C  0.25896296  0.50197657  0.67101094    -0.17400
C1156       C  0.33210933  0.49992573  0.75780122    -0.17400
C1157       C  0.23909825  0.49558064  0.82721532    -0.17400
C1158       C  0.16796166  0.50127477  0.74056029    -0.17400
H1159       H  0.33476671  0.52592954  0.65516126     0.15500
H1160       H  0.37442733  0.52509631  0.70174971     0.15500
H1161       H  0.15017708  0.52415364  0.79709366     0.15500
H1162       H  0.18846445  0.52078304  0.84400857     0.15500
H1163       H  0.18887665  0.48042014  0.64171361     0.13800
H1164       H  0.13979226  0.48165562  0.67947078     0.13800
H1165       H  0.33795509  0.47557734  0.81803959     0.13800
H1166       H  0.28617958  0.47154607  0.85541201     0.13800
H1167       H  0.26402575  0.48679571  0.73276000     0.27100
H1168       H  0.22029868  0.48394990  0.76492245     0.27100
N1169       N  0.21575257  0.70862463  0.52809576    -0.35700
N1170       N  0.21543334  0.72223570  0.96252973    -0.56200
N1171       N  0.28444476  0.79318510  0.96999720    -0.35700
N1172       N  0.28483278  0.77951514  0.53552736    -0.56200
C1173       C  0.18156936  0.68012451  0.52050390     0.27900
C1174       C  0.21736217  0.71099898  0.55909040     0.27900
C1175       C  0.28292168  0.79047910  0.93902000     0.27900
C1176       C  0.31885757  0.82133723  0.97752051     0.27900
C1177       C  0.18203102  0.69066622  0.96399319     0.36500
C1178       C  0.21949525  0.73438751  0.93341821     0.36500
C1179       C  0.28035916  0.76785738  0.56483229     0.36500
C1180       C  0.31792162  0.81150652  0.53415892     0.36500
C1181       C  0.16180288  0.66352220  0.54706061    -0.21000
C1182       C  0.18422148  0.68303652  0.57126029    -0.21000
C1183       C  0.31633612  0.81785514  0.92678306    -0.21000
C1184       C  0.33885557  0.83735492  0.95092833    -0.21000
C1185       C  0.16453888  0.68284283  0.93574427    -0.22000
C1186       C  0.18806181  0.71084401  0.91650322    -0.22000
C1187       C  0.31125379  0.79216890  0.58195293    -0.22000
C1188       C  0.33478954  0.82009784  0.56265713    -0.22000
C1189       C  0.16657413  0.66918380  0.99055265    -0.17400
C1190       C  0.24777874  0.73735392  0.57694791    -0.17400
C1191       C  0.33373343  0.83263848  0.00746933    -0.17400
C1192       C  0.25225933  0.76447117  0.92123612    -0.17400
H1193       H  0.13359922  0.64034711  0.54892288     0.15500
H1194       H  0.17671013  0.67742313  0.59514448     0.15500
H1195       H  0.32393681  0.82311471  0.90289506     0.15500
H1196       H  0.36724342  0.86016314  0.94901511     0.15500
H1197       H  0.13739251  0.65981233  0.92970761     0.13800
H1198       H  0.18238786  0.71381787  0.89289034     0.13800
H1199       H  0.31660264  0.78977428  0.60576088     0.13800
H1200       H  0.36154771  0.84361879  0.56884882     0.13800
H1201       H  0.23743749  0.72392365  0.51305424     0.27100
H1202       H  0.26253369  0.77847835  0.98501798     0.27100
N1203       N  0.21542572  0.72186700  0.78527117    -0.35700
N1204       N  0.21313812  0.71083591  0.71913056    -0.56200
N1205       N  0.28457269  0.77922599  0.71309579    -0.35700
N1206       N  0.28715673  0.78996084  0.77928501    -0.56200
C1207       C  0.18602363  0.68677477  0.78340507     0.27900
C1208       C  0.22586676  0.72814790  0.81501839     0.27900
C1209       C  0.27368125  0.77319650  0.68344539     0.27900
C1210       C  0.31333086  0.81465478  0.71509855     0.27900
C1211       C  0.18073493  0.67989799  0.72644403     0.36500
C1212       C  0.21641382  0.71071538  0.68833869     0.36500
C1213       C  0.28422333  0.78984176  0.81009616     0.36500
C1214       C  0.31970068  0.82069204  0.77198849     0.36500
C1215       C  0.17732582  0.67082706  0.81220675    -0.21000
C1216       C  0.20271600  0.69671709  0.83205101    -0.21000
C1217       C  0.29580511  0.80517456  0.66663284    -0.21000
C1218       C  0.32108936  0.83115242  0.68650667    -0.21000
C1219       C  0.16334345  0.66013447  0.70006311    -0.22000
C1220       C  0.18606940  0.67944789  0.67603681    -0.22000
C1221       C  0.31500299  0.82068368  0.82243741    -0.22000
C1222       C  0.33759055  0.84005565  0.79838252    -0.22000
C1223       C  0.16700839  0.66817661  0.75650714    -0.17400
C1224       C  0.25536929  0.76134900  0.82751120    -0.17400
C1225       C  0.33285513  0.83284087  0.74192341    -0.17400
C1226       C  0.24478420  0.73966233  0.67085969    -0.17400
H1227       H  0.15575841  0.64291264  0.81816377     0.15500
H1228       H  0.20483071  0.69220879  0.85609096     0.15500
H1229       H  0.29308265  0.80990604  0.64274626     0.15500
H1230       H  0.34201973  0.85939999  0.68073468     0.15500
H1231       H  0.13706884  0.63431500  0.69821600     0.13800
H1232       H  0.18040023  0.67176436  0.65217246     0.13800
H1233       H  0.32091296  0.82817553  0.84631494     0.13800
H1234       H  0.36398799  0.86575855  0.80019327     0.13800
H1235       H  0.22563822  0.74132331  0.76774086     0.27100
H1236       H  0.27528479  0.75940426  0.73036833     0.27100
C1237       C  0.25663941  0.76548668  0.86056574    -0.12300
C1238       C  0.25558024  0.76679215  0.88812148    -0.13900
C1239       C  0.24443363  0.73477324  0.61011454    -0.12300
C1240       C  0.24343470  0.73579286  0.63772473    -0.13900
C1241       C  0.23656367  0.49683570  0.88790621    -0.12300
C1242       C  0.23602519  0.49586326  0.86029000    -0.13900
C1243       C  0.26306325  0.50366862  0.63795798    -0.12300
C1244       C  0.26346388  0.50479013  0.61034005    -0.13900
C1245       C  0.00027130  0.73877694  0.86115067    -0.12300
C1246       C  0.00062658  0.73905052  0.88876890    -0.13900
C1247       C  0.00042912  0.76227690  0.63876566    -0.12300
C1248       C  0.00065078  0.76276135  0.61114837    -0.13900
N1249       N  0.50219468  0.22046323  0.03653445    -0.35700
N1250       N  0.00186888  0.29021667  0.02956787    -0.56200
N1251       N  0.50444272  0.28424509  0.46332603    -0.35700
N1252       N  0.50158238  0.21294861  0.47038243    -0.56200
C1253       C  0.99465606  0.22580881  0.06557517     0.27900
C1254       C  0.49450417  0.18474183  0.03432999     0.27900
C1255       C  0.99780008  0.31298053  0.46549966     0.27900
C1256       C  0.49657539  0.27139632  0.43427326     0.27900
C1257       C  0.00658810  0.29079593  0.06023940     0.36500
C1258       C  0.00790181  0.32432477  0.02163720     0.36500
C1259       C  0.50549443  0.18354549  0.47827563     0.36500
C1260       C  0.50576266  0.21657328  0.43965972     0.36500
C1261       C  0.98236646  0.19314361  0.08208550    -0.21000
C1262       C  0.48250210  0.16731776  0.06242216    -0.21000
C1263       C  0.98611467  0.31888883  0.43744870    -0.21000
C1264       C  0.48517080  0.29253934  0.41775906    -0.21000
C1265       C  0.01522727  0.32528203  0.07193035    -0.22000
C1266       C  0.01607450  0.34651573  0.04751548    -0.22000
C1267       C  0.51172260  0.16817367  0.45224391    -0.22000
C1268       C  0.51194917  0.18910632  0.42787057    -0.22000
C1269       C  0.00078826  0.25990574  0.07805012    -0.17400
C1270       C  0.50000349  0.16816889  0.00810200    -0.17400
C1271       C  0.50125006  0.24247598  0.42184921    -0.17400
C1272       C  0.00350262  0.33494254  0.99179174    -0.17400
H1273       H  0.97416177  0.18834477  0.10586878     0.15500
H1274       H  0.47475635  0.13899712  0.06826489     0.15500
H1275       H  0.97890200  0.33991556  0.43177639     0.15500
H1276       H  0.47683264  0.28925060  0.39400202     0.15500
H1277       H  0.01994816  0.33406847  0.09561831     0.13800
H1278       H  0.02157682  0.37490718  0.04876478     0.13800
H1279       H  0.51481734  0.14380654  0.45071162     0.13800
H1280       H  0.51542692  0.18413354  0.40411270     0.13800
H1281       H  0.51579721  0.24110242  0.02024270     0.27100
H1282       H  0.51743536  0.27657260  0.47973348     0.27100
N1283       N  0.49706163  0.21739917  0.21333792    -0.35700
N1284       N  0.49890199  0.28816097  0.22040260    -0.56200
N1285       N  0.49777738  0.28061749  0.28659301    -0.35700
N1286       N  0.49916168  0.21138524  0.27960221    -0.56200
C1287       C  0.50460162  0.22997443  0.18423249     0.27900
C1288       C  0.50355916  0.18859095  0.21549290     0.27900
C1289       C  0.50534488  0.31629207  0.28434151     0.27900
C1290       C  0.50563217  0.27551623  0.31559923     0.27900
C1291       C  0.49492340  0.28451731  0.18965534     0.36500
C1292       C  0.49446449  0.31727718  0.22826165     0.36500
C1293       C  0.49336710  0.17735881  0.27164059     0.36500
C1294       C  0.49417999  0.21071784  0.31023364     0.36500
C1295       C  0.51570064  0.20858841  0.16765859    -0.21000
C1296       C  0.51485354  0.18234628  0.18737154    -0.21000
C1297       C  0.51754668  0.33391836  0.31238017    -0.21000
C1298       C  0.51794144  0.30826853  0.33205506    -0.21000
C1299       C  0.48834986  0.31168862  0.17783591    -0.22000
C1300       C  0.48812730  0.33245425  0.20219778    -0.22000
C1301       C  0.48507778  0.15513259  0.29746739    -0.22000
C1302       C  0.48560116  0.17626197  0.32187804    -0.22000
C1303       C  0.49979723  0.25880424  0.17183693    -0.17400
C1304       C  0.49789878  0.16677151  0.24180525    -0.17400
C1305       C  0.49983277  0.24156259  0.32806929    -0.17400
C1306       C  0.49966070  0.33266120  0.25809055    -0.17400
H1307       H  0.52368410  0.21158418  0.14383339     0.15500
H1308       H  0.52179616  0.16112454  0.18165406     0.15500
H1309       H  0.52530389  0.36227397  0.31816589     0.15500
H1310       H  0.52636576  0.31324502  0.35579783     0.15500
H1311       H  0.48486196  0.31655820  0.15406524     0.13800
H1312       H  0.48464576  0.35658465  0.20064243     0.13800
H1313       H  0.47967572  0.12677628  0.29868797     0.13800
H1314       H  0.48070843  0.16743088  0.34553337     0.13800
H1315       H  0.48429425  0.22524470  0.22981478     0.27100
H1316       H  0.48409735  0.25985931  0.27034763     0.31700
O1317       O  0.51712146  0.45464412  0.02033312    -0.87400
C1318       C  0.56640107  0.03215220  0.45213299     0.88600
Mg1319     Mg  0.95955119  0.41154238  0.01860593     1.58100
O1320       O  0.54712619  0.06437299  0.02057316    -0.87100
O1321       O  0.55697431  0.99939802  0.04979463    -0.74500
C1322       C  0.86679939  0.99837604  0.48815860     0.93700
O1323       O  0.49886325  0.44322526  0.44799798    -0.74300
O1324       O  0.86548049  0.46762836  0.48266449    -0.81800
Mg1325     Mg  0.54921141  0.46039240  0.47974570     1.58000
C1326       C  0.99814214  0.13173627  0.01101607     0.93600
O1327       O  0.60272190  0.47406815  0.00561715    -0.80000
H1328       H  0.55462946  0.07520240  0.06538445    -0.05400
C1329       C  0.96974494  0.03682235  0.45254834     0.88500
O1330       O  0.94221901  0.44491349  0.04985813    -0.74600
O1331       O  0.56400879  0.01812139  0.47752515    -0.87300
O1332       O  0.52782187  0.13051656  0.00640148    -0.80100
C1333       C  0.63049627  0.13429311  0.48809782     0.93700
C1334       C  0.63356967  0.00390015  0.01002163     0.93600
Mg1335     Mg  0.95157208  0.04203511  0.01891450     1.58000
O1336       O  0.89699743  0.02796919  0.49478069    -0.80100
O1337       O  0.00233507  0.05898510  0.05021542    -0.74300
O1338       O  0.62985805  0.10382975  0.49339011    -0.80100
O1339       O  0.53435311  0.40010829  0.48366848    -0.81800
O1340       O  0.87066233  0.39787134  0.00307363    -0.80200
C1341       C  0.53582281  0.06685982  0.04607774     0.88000
O1342       O  0.93658380  0.48423890  0.02040372    -0.87300
O1343       O  0.98343355  0.04801643  0.47810662    -0.87400
O1344       O  0.94454421  0.50327050  0.44815822    -0.74500
Mg1345     Mg  0.59012087  0.04989217  0.01830179     1.58000
O1346       O  0.60108888  0.13597896  0.48382291    -0.81800
H1347       H  0.52106773  0.44719886  0.06504585    -0.05600
O1348       O  0.95371077  0.43739299  0.47748038    -0.87100
H1349       H  0.94651386  0.42641291  0.43267053    -0.05400
H1350       H  0.92531608  0.48035287  0.06513276    -0.05600
C1351       C  0.96523732  0.43494336  0.45204287     0.88000
C1352       C  0.53126733  0.46595987  0.04574473     0.88600
C1353       C  0.93396750  0.47022573  0.04580234     0.88600
H1354       H  0.98010841  0.05576576  0.43336758    -0.05600
O1355       O  0.55820141  0.05756922  0.44824328    -0.74600
Mg1356     Mg  0.91096925  0.45252555  0.47919838     1.58000
H1357       H  0.57489430  0.02203430  0.43269365    -0.05600
C1358       C  0.00364961  0.37053515  0.48879220     0.93600
O1359       O  0.89923132  0.36612330  0.01524078    -0.81800
C1360       C  0.86988966  0.36763412  0.00979768     0.93700
O1361       O  0.63554185  0.03516644  0.01404353    -0.81800
Mg1362     Mg  0.54109123  0.09072810  0.48021257     1.58200
O1363       O  0.97369549  0.37085510  0.49454948    -0.80100
O1364       O  0.96675256  0.10254417  0.01512082    -0.81800
O1365       O  0.98364180  0.04728349  0.27069558    -0.87400
C1366       C  0.93361713  0.46948192  0.20276201     0.88600
Mg1367     Mg  0.54137916  0.08991596  0.26875237     1.58100
O1368       O  0.95302524  0.43718438  0.27105623    -0.87100
O1369       O  0.94393626  0.50285056  0.30037600    -0.74500
C1370       C  0.63285369  0.00209980  0.23797667     0.93700
O1371       O  0.00158237  0.05799607  0.19821778    -0.74300
O1372       O  0.63434713  0.03296368  0.23287199    -0.81800
Mg1373     Mg  0.95144792  0.04140865  0.23002055     1.58000
C1374       C  0.00148856  0.36910437  0.26090275     0.93600
O1375       O  0.89790688  0.02835008  0.25563515    -0.80000
H1376       H  0.94580516  0.42614760  0.31583491    -0.05400
C1377       C  0.52974711  0.46412276  0.20249687     0.88500
O1378       O  0.55857605  0.05636305  0.29992391    -0.74600
O1379       O  0.93632607  0.48367545  0.22814776    -0.87300
O1380       O  0.97179694  0.37035653  0.25629385    -0.80100
C1381       C  0.86883257  0.36774259  0.23900217     0.93700
C1382       C  0.86707416  0.99862918  0.26036667     0.93600
Mg1383     Mg  0.54832912  0.45876565  0.26871118     1.58000
O1384       O  0.60251179  0.47244004  0.24406490    -0.80100
O1385       O  0.49787570  0.44198889  0.30033570    -0.74300
O1386       O  0.86973524  0.39838289  0.24407416    -0.80100
O1387       O  0.96675409  0.10170702  0.23352088    -0.81800
O1388       O  0.63009732  0.10260839  0.25373486    -0.80200
C1389       C  0.96444818  0.43446021  0.29643955     0.88000
O1390       O  0.56344642  0.01659156  0.27039233    -0.87300
O1391       O  0.51621057  0.45282183  0.22806841    -0.87400
O1392       O  0.55511710  0.99763956  0.19822481    -0.74500
Mg1393     Mg  0.91025005  0.45223437  0.26898052     1.58000
O1394       O  0.89808755  0.36578843  0.23461536    -0.81800
H1395       H  0.98010871  0.05514980  0.31540302    -0.05600
O1396       O  0.54674746  0.06378668  0.22766027    -0.87100
H1397       H  0.55381311  0.07446546  0.18282642    -0.05400
H1398       H  0.57499109  0.02051341  0.31508080    -0.05600
C1399       C  0.53517624  0.06615694  0.20222776     0.88000
C1400       C  0.96967467  0.03622626  0.29617144     0.88600
C1401       C  0.56637728  0.03073170  0.29580878     0.88600
H1402       H  0.51913857  0.44530046  0.18320794    -0.05600
O1403       O  0.94146207  0.44382943  0.19881380    -0.74600
Mg1404     Mg  0.58922059  0.04832092  0.22938995     1.58000
H1405       H  0.92515964  0.47966817  0.18336978    -0.05600
C1406       C  0.99753798  0.13112584  0.23881329     0.93600
O1407       O  0.60178607  0.13491448  0.26474143    -0.81800
C1408       C  0.63101407  0.13315124  0.25945478     0.93700
O1409       O  0.86514877  0.46745800  0.26480896    -0.81800
Mg1410     Mg  0.95839622  0.41047049  0.23054561     1.58200
O1411       O  0.52731304  0.13061332  0.24491334    -0.80100
O1412       O  0.53293744  0.39827924  0.26486156    -0.81800
N1413       N  0.78986199  0.00366989  0.02862055    -0.35700
N1414       N  0.78023306  0.99807960  0.46238431    -0.56200
N1415       N  0.71202704  0.00130363  0.46953168    -0.35700
N1416       N  0.71982318  0.00333363  0.03579662    -0.56200
C1417       C  0.81636397  0.99533358  0.02038893     0.27900
C1418       C  0.78474624  0.99831741  0.05920385     0.27900
C1419       C  0.71042662  0.99357006  0.43927172     0.27900
C1420       C  0.67797582  0.99508676  0.47812219     0.27900
C1421       C  0.81525365  0.00370038  0.46403041     0.36500
C1422       C  0.77474252  0.00395331  0.43295483     0.36500
C1423       C  0.73208860  0.01081432  0.06497907     0.36500
C1424       C  0.69067077  0.00931237  0.03383930     0.36500
C1425       C  0.82863567  0.98510737  0.04620700    -0.21000
C1426       C  0.80871762  0.98700148  0.07065104    -0.21000
C1427       C  0.67505967  0.98274710  0.42830710    -0.21000
C1428       C  0.65462984  0.98378058  0.45270645    -0.21000
C1429       C  0.83200672  0.01273674  0.43554314    -0.22000
C1430       C  0.80641903  0.01318963  0.41586485    -0.22000
C1431       C  0.71044072  0.02140280  0.08168859    -0.22000
C1432       C  0.68402446  0.02019047  0.06201405    -0.22000
C1433       C  0.83161486  0.99912260  0.99065972    -0.17400
C1434       C  0.76049926  0.00527517  0.07724994    -0.17400
C1435       C  0.66843035  0.00247949  0.00752296    -0.17400
C1436       C  0.74071484  0.99848310  0.42094816    -0.17400
H1437       H  0.85005554  0.97745761  0.04741157     0.15500
H1438       H  0.81182770  0.98107531  0.09422454     0.15500
H1439       H  0.66516191  0.97552497  0.40501186     0.15500
H1440       H  0.62602624  0.97763916  0.45146625     0.15500
H1441       H  0.85980316  0.01860829  0.42962536     0.13800
H1442       H  0.81077733  0.01983745  0.39179014     0.13800
H1443       H  0.71333447  0.02918413  0.10555930     0.13800
H1444       H  0.66229811  0.02635080  0.06789794     0.13800
H1445       H  0.77903170  0.01629654  0.01481146     0.27100
H1446       H  0.73610992  0.01438284  0.48260802     0.27100
N1447       N  0.78808454  0.00010814  0.21968665    -0.35700
N1448       N  0.71926578  0.00207399  0.21240681    -0.56200
N1449       N  0.70972775  0.99698166  0.27859913    -0.35700
N1450       N  0.78020700  0.99824300  0.28589766    -0.56200
C1451       C  0.78947009  0.00748603  0.18938192     0.27900
C1452       C  0.82236421  0.00701649  0.22836008     0.27900
C1453       C  0.68337641  0.00546897  0.27026910     0.27900
C1454       C  0.71501033  0.00269530  0.30914155     0.27900
C1455       C  0.72481578  0.99620898  0.18298362     0.36500
C1456       C  0.68425002  0.99646069  0.21398696     0.36500
C1457       C  0.80961573  0.99265567  0.28400480     0.36500
C1458       C  0.76762744  0.99024009  0.31495290     0.36500
C1459       C  0.82495542  0.01880331  0.17846771    -0.21000
C1460       C  0.84566895  0.01845857  0.20294650    -0.21000
C1461       C  0.67141388  0.01624302  0.29598707    -0.21000
C1462       C  0.69134974  0.01447195  0.32048151    -0.21000
C1463       C  0.69315122  0.98694239  0.16582920    -0.22000
C1464       C  0.66753587  0.98741370  0.18546208    -0.22000
C1465       C  0.81610556  0.98152738  0.31210393    -0.22000
C1466       C  0.78929068  0.97967378  0.33163624    -0.22000
C1467       C  0.75896062  0.00197356  0.17101048    -0.17400
C1468       C  0.83210977  0.99992653  0.25780014    -0.17400
C1469       C  0.73910016  0.99558111  0.32721538    -0.17400
C1470       C  0.66796239  0.00127500  0.24056059    -0.17400
H1471       H  0.83476479  0.02592970  0.15516042     0.15500
H1472       H  0.87442707  0.02509931  0.20174865     0.15500
H1473       H  0.65018081  0.02415685  0.29709376     0.15500
H1474       H  0.68846889  0.02078665  0.34400836     0.15500
H1475       H  0.68887365  0.98041711  0.14171351     0.13800
H1476       H  0.63979055  0.98165436  0.17947149     0.13800
H1477       H  0.83795577  0.97557583  0.31803782     0.13800
H1478       H  0.78618049  0.97154418  0.35541105     0.13800
H1479       H  0.76402545  0.98679535  0.23276003     0.27100
H1480       H  0.72029989  0.98395028  0.26492251     0.27100
N1481       N  0.71575202  0.20862536  0.02809577    -0.35700
N1482       N  0.71543688  0.22223405  0.46253010    -0.56200
N1483       N  0.78444694  0.29318517  0.46999779    -0.35700
N1484       N  0.78483196  0.27951635  0.03552775    -0.56200
C1485       C  0.68156877  0.18012542  0.02050365     0.27900
C1486       C  0.71736053  0.21100067  0.05909036     0.27900
C1487       C  0.78292375  0.29047927  0.43902061     0.27900
C1488       C  0.81885945  0.32133792  0.47752109     0.27900
C1489       C  0.68203385  0.19066536  0.46399403     0.36500
C1490       C  0.71949783  0.23438685  0.43341890     0.36500
C1491       C  0.78035797  0.26785827  0.06483261     0.36500
C1492       C  0.81792130  0.31150723  0.03415942     0.36500
C1493       C  0.66180114  0.16352439  0.04706019    -0.21000
C1494       C  0.68421907  0.18303920  0.07126001    -0.21000
C1495       C  0.81633788  0.31785585  0.42678365    -0.21000
C1496       C  0.83885725  0.33735585  0.45092889    -0.21000
C1497       C  0.66454056  0.18284315  0.43574566    -0.22000
C1498       C  0.68806334  0.21084443  0.41650455    -0.22000
C1499       C  0.81125289  0.29216903  0.08195329    -0.22000
C1500       C  0.83478901  0.32009806  0.06265767    -0.22000
C1501       C  0.66657687  0.16918328  0.49055368    -0.17400
C1502       C  0.74777695  0.23735531  0.07694808    -0.17400
C1503       C  0.83373487  0.33264016  0.50746991    -0.17400
C1504       C  0.75226119  0.26447162  0.42123674    -0.17400
H1505       H  0.63359714  0.14034986  0.04892219     0.15500
H1506       H  0.67670681  0.17742674  0.09514412     0.15500
H1507       H  0.82393832  0.32311581  0.40289563     0.15500
H1508       H  0.86724474  0.36016475  0.44901561     0.15500
H1509       H  0.63739318  0.15981387  0.42970962     0.13800
H1510       H  0.68238813  0.21381965  0.39289233     0.13800
H1511       H  0.81660195  0.28977351  0.10576099     0.13800
H1512       H  0.86154763  0.34361837  0.06884932     0.13800
H1513       H  0.73743774  0.22392348  0.01305466     0.27100
H1514       H  0.76253579  0.27847816  0.48501846     0.27100
N1515       N  0.71542365  0.22187172  0.28527192    -0.35700
N1516       N  0.71313596  0.21083759  0.21913142    -0.56200
N1517       N  0.78457159  0.27922604  0.21309526    -0.35700
N1518       N  0.78715529  0.28996444  0.27928433    -0.56200
C1519       C  0.68602261  0.18677873  0.28340647     0.27900
C1520       C  0.72586552  0.22815345  0.31501896     0.27900
C1521       C  0.77368004  0.27319614  0.18344491     0.27900
C1522       C  0.81333120  0.31465408  0.21509728     0.27900
C1523       C  0.68073210  0.17990075  0.22644553     0.36500
C1524       C  0.71641025  0.21071691  0.18833937     0.36500
C1525       C  0.78422261  0.28984646  0.31009554     0.36500
C1526       C  0.81970077  0.32069352  0.27198720     0.36500
C1527       C  0.67732625  0.17083156  0.31220833    -0.21000
C1528       C  0.70271630  0.19672252  0.33205203    -0.21000
C1529       C  0.79580537  0.30517314  0.16663168    -0.21000
C1530       C  0.82109076  0.33115062  0.18650497    -0.21000
C1531       C  0.66333873  0.16013785  0.20006484    -0.22000
C1532       C  0.68606419  0.17945048  0.17603801    -0.22000
C1533       C  0.81500414  0.32068707  0.32243618    -0.22000
C1534       C  0.83759220  0.34005698  0.29838087    -0.22000
C1535       C  0.66700692  0.16817938  0.25650899    -0.17400
C1536       C  0.75536827  0.26135482  0.32751123    -0.17400
C1537       C  0.83285555  0.33284067  0.24192189    -0.17400
C1538       C  0.74478118  0.23966274  0.17085983    -0.17400
H1539       H  0.65576002  0.14291680  0.31816581     0.15500
H1540       H  0.70483240  0.19221453  0.35609180     0.15500
H1541       H  0.79308279  0.30990458  0.14274514     0.15500
H1542       H  0.84202226  0.35939751  0.18073236     0.15500
H1543       H  0.63706314  0.13431930  0.19821825     0.13800
H1544       H  0.68039373  0.17176718  0.15217370     0.13800
H1545       H  0.82091528  0.32817894  0.34631362     0.13800
H1546       H  0.86399129  0.36575822  0.30019108     0.13800
H1547       H  0.72563513  0.24132773  0.26774128     0.27100
H1548       H  0.77528238  0.25940517  0.23036851     0.27100
C1549       C  0.75663957  0.26549223  0.36056597    -0.12300
C1550       C  0.75558075  0.26679524  0.38812195    -0.13900
C1551       C  0.74443094  0.23477452  0.11011467    -0.12300
C1552       C  0.74343099  0.23579313  0.13772486    -0.13900
C1553       C  0.73656510  0.99683434  0.38790652    -0.12300
C1554       C  0.73602669  0.99586274  0.36029020    -0.13900
C1555       C  0.76306050  0.00366437  0.13795754    -0.12300
C1556       C  0.76346148  0.00478535  0.11033962    -0.13900
C1557       C  0.50027406  0.23878049  0.36114984    -0.12300
C1558       C  0.50062868  0.23905283  0.38876809    -0.13900
C1559       C  0.50042547  0.26227231  0.13876490    -0.12300
C1560       C  0.50064528  0.26275652  0.11114759    -0.13900
N1561       N  0.50219718  0.22046439  0.53653557    -0.35700
N1562       N  0.00186880  0.29021675  0.52956904    -0.56200
N1563       N  0.50444536  0.28424649  0.96332557    -0.35700
N1564       N  0.50158434  0.21294972  0.97038169    -0.56200
C1565       C  0.99466117  0.22581121  0.56557708     0.27900
C1566       C  0.49450659  0.18474295  0.53433149     0.27900
C1567       C  0.99780376  0.31298232  0.96549872     0.27900
C1568       C  0.49657722  0.27139724  0.93427295     0.27900
C1569       C  0.00658943  0.29079700  0.56024043     0.36500
C1570       C  0.00789983  0.32432412  0.52163809     0.36500
C1571       C  0.50549720  0.18354714  0.97827491     0.36500
C1572       C  0.50576625  0.21657542  0.93965921     0.36500
C1573       C  0.98237395  0.19314690  0.58208820    -0.21000
C1574       C  0.48250628  0.16731980  0.56242416    -0.21000
C1575       C  0.98611767  0.31889014  0.93744792    -0.21000
C1576       C  0.48517172  0.29253967  0.91775899    -0.21000
C1577       C  0.01522741  0.32528289  0.57193106    -0.22000
C1578       C  0.01607254  0.34651550  0.54751614    -0.22000
C1579       C  0.51172809  0.16817700  0.95224341    -0.22000
C1580       C  0.51195506  0.18910994  0.92787018    -0.22000
C1581       C  0.00079194  0.25990788  0.57805144    -0.17400
C1582       C  0.50000348  0.16816877  0.50810320    -0.17400
C1583       C  0.50125220  0.24247714  0.92184878    -0.17400
C1584       C  0.00349961  0.33494113  0.49179260    -0.17400
H1585       H  0.97417090  0.18834879  0.60587185     0.15500
H1586       H  0.47476053  0.13899924  0.56826716     0.15500
H1587       H  0.97890440  0.33991647  0.93177576     0.15500
H1588       H  0.47683265  0.28925039  0.89400218     0.15500
H1589       H  0.01994900  0.33406992  0.59561887     0.13800
H1590       H  0.02157358  0.37490652  0.54876529     0.13800
H1591       H  0.51482394  0.14381054  0.95071104     0.13800
H1592       H  0.51543436  0.18413814  0.90411240     0.13800
H1593       H  0.51579831  0.24110299  0.52024311     0.27100
H1594       H  0.51743855  0.27657441  0.97973287     0.27100
N1595       N  0.49706318  0.21740062  0.71333800    -0.35700
N1596       N  0.49890104  0.28816119  0.72040314    -0.56200
N1597       N  0.49777643  0.28061687  0.78659323    -0.35700
N1598       N  0.49916216  0.21138529  0.77960195    -0.56200
C1599       C  0.50460417  0.22997697  0.68423291     0.27900
C1600       C  0.50356129  0.18859273  0.71549275     0.27900
C1601       C  0.50534336  0.31629129  0.78434208     0.27900
C1602       C  0.50563134  0.27551544  0.81559934     0.27900
C1603       C  0.49492257  0.28451772  0.68965592     0.36500
C1604       C  0.49446205  0.31727637  0.72826246     0.36500
C1605       C  0.49336667  0.17735866  0.77163993     0.36500
C1606       C  0.49417920  0.21071717  0.81023323     0.36500
C1607       C  0.51570478  0.20859221  0.66765904    -0.21000
C1608       C  0.51485727  0.18234951  0.68737158    -0.21000
C1609       C  0.51754475  0.33391725  0.81238089    -0.21000
C1610       C  0.51793999  0.30826744  0.83205546    -0.21000
C1611       C  0.48834723  0.31168797  0.67783671    -0.22000
C1612       C  0.48812357  0.33245283  0.70219879    -0.22000
C1613       C  0.48507540  0.15513149  0.79746634    -0.22000
C1614       C  0.48559862  0.17626060  0.82187719    -0.22000
C1615       C  0.49979858  0.25880610  0.67183746    -0.17400
C1616       C  0.49789959  0.16677215  0.74180465    -0.17400
C1617       C  0.49983220  0.24156180  0.82806912    -0.17400
C1618       C  0.49965897  0.33266052  0.75809132    -0.17400
H1619       H  0.52368941  0.21158909  0.64383408     0.15500
H1620       H  0.52180056  0.16112830  0.68165394     0.15500
H1621       H  0.52530129  0.36227258  0.81816696     0.15500
H1622       H  0.52636414  0.31324375  0.85579826     0.15500
H1623       H  0.48485908  0.31655750  0.65406608     0.13800
H1624       H  0.48464075  0.35658248  0.70064372     0.13800
H1625       H  0.47967215  0.12677476  0.79868652     0.13800
H1626       H  0.48070442  0.16742882  0.84553234     0.13800
H1627       H  0.48429452  0.22524499  0.72981461     0.27100
H1628       H  0.48409667  0.25985880  0.77034772     0.31700
O1629       O  0.51712169  0.45464358  0.52033409    -0.87400
C1630       C  0.56639969  0.03215227  0.95213133     0.88600
Mg1631     Mg  0.95955118  0.41154249  0.51860645     1.58100
O1632       O  0.54712786  0.06437297  0.52057501    -0.87100
O1633       O  0.55697624  0.99939770  0.54979611    -0.74500
C1634       C  0.86679807  0.99837523  0.98815791     0.93700
O1635       O  0.49886282  0.44322475  0.94799691    -0.74300
O1636       O  0.86547963  0.46762735  0.98266441    -0.81800
Mg1637     Mg  0.54921130  0.46039280  0.97974459     1.58000
C1638       C  0.99814329  0.13173677  0.51101782     0.93600
O1639       O  0.60272172  0.47406697  0.50561825    -0.80000
H1640       H  0.55463088  0.07520141  0.56538644    -0.05400
C1641       C  0.96974344  0.03682134  0.95254660     0.88500
O1642       O  0.94222033  0.44491373  0.54985946    -0.74600
O1643       O  0.56400724  0.01812170  0.97752362    -0.87300
O1644       O  0.52782259  0.13051691  0.50640294    -0.80100
C1645       C  0.63049515  0.13429333  0.98809669     0.93700
C1646       C  0.63357054  0.00389924  0.51002273     0.93600
Mg1647     Mg  0.95157349  0.04203528  0.51891668     1.58000
O1648       O  0.89699665  0.02796912  0.99477733    -0.80100
O1649       O  0.00233677  0.05898459  0.55021729    -0.74300
O1650       O  0.62985672  0.10382997  0.99338939    -0.80100
O1651       O  0.53435395  0.40010902  0.98366720    -0.81800
O1652       O  0.87066239  0.39787218  0.50307359    -0.80200
C1653       C  0.53582434  0.06685927  0.54607968     0.88000
O1654       O  0.93658437  0.48423901  0.52040535    -0.87300
O1655       O  0.98343231  0.04801611  0.97810472    -0.87400
O1656       O  0.94454329  0.50326907  0.94815676    -0.74500
Mg1657     Mg  0.59012255  0.04989197  0.51830310     1.58000
O1658       O  0.60108790  0.13597918  0.98382089    -0.81800
H1659       H  0.52106756  0.44719794  0.56504680    -0.05600
O1660       O  0.95371019  0.43739189  0.97747936    -0.87100
H1661       H  0.94651346  0.42641204  0.93266949    -0.05400
H1662       H  0.92531811  0.48035343  0.56513465    -0.05600
C1663       C  0.96523694  0.43494264  0.95204182     0.88000
C1664       C  0.53126743  0.46595911  0.54574578     0.88600
C1665       C  0.93396876  0.47022597  0.54580395     0.88600
H1666       H  0.98010669  0.05576422  0.93336549    -0.05600
O1667       O  0.55820005  0.05756924  0.94824125    -0.74600
Mg1668     Mg  0.91096852  0.45252449  0.97919750     1.58000
H1669       H  0.57489290  0.02203406  0.93269218    -0.05600
C1670       C  0.00365153  0.37053606  0.98879170     0.93600
O1671       O  0.89923115  0.36612412  0.51524119    -0.81800
C1672       C  0.86988960  0.36763498  0.50979776     0.93700
O1673       O  0.63554303  0.03516575  0.51404413    -0.81800
Mg1674     Mg  0.54109011  0.09072814  0.98021052     1.58200
O1675       O  0.97369741  0.37085531  0.99455079    -0.80100
O1676       O  0.96675401  0.10254451  0.51512328    -0.81800
O1677       O  0.98364220  0.04728427  0.77069619    -0.87400
C1678       C  0.93361712  0.46948192  0.70276403     0.88600
Mg1679     Mg  0.54137973  0.08991617  0.76875218     1.58100
O1680       O  0.95302624  0.43718457  0.77105814    -0.87100
O1681       O  0.94393927  0.50285188  0.80037776    -0.74500
C1682       C  0.63285366  0.00209866  0.73797725     0.93700
O1683       O  0.00158322  0.05799754  0.69821794    -0.74300
O1684       O  0.63434687  0.03296243  0.73287255    -0.81800
Mg1685     Mg  0.95144865  0.04140900  0.73002081     1.58000
C1686       C  0.00148748  0.36910389  0.76090356     0.93600
O1687       O  0.89790775  0.02835023  0.75563533    -0.80000
H1688       H  0.94580710  0.42614801  0.81583692    -0.05400
C1689       C  0.52974640  0.46412225  0.70249814     0.88500
O1690       O  0.55857629  0.05636326  0.79992407    -0.74600
O1691       O  0.93632689  0.48367558  0.72814981    -0.87300
O1692       O  0.97179599  0.37035640  0.75629521    -0.80100
C1693       C  0.86883238  0.36774285  0.73900369     0.93700
C1694       C  0.86707531  0.99862932  0.76036741     0.93600
Mg1695     Mg  0.54832949  0.45876530  0.76871176     1.58000
O1696       O  0.60251126  0.47243895  0.74406396    -0.80100
O1697       O  0.49787703  0.44198889  0.80033720    -0.74300
O1698       O  0.86973528  0.39838282  0.74407818    -0.80100
O1699       O  0.96675393  0.10170708  0.73352045    -0.81800
O1700       O  0.63009742  0.10260718  0.75373482    -0.80200
C1701       C  0.96444970  0.43446047  0.79644129     0.88000
O1702       O  0.56344645  0.01659093  0.77039325    -0.87300
O1703       O  0.51621015  0.45282160  0.72806980    -0.87400
O1704       O  0.55511657  0.99763783  0.69822584    -0.74500
Mg1705     Mg  0.91025160  0.45223514  0.76898321     1.58000
O1706       O  0.89808726  0.36578887  0.73461581    -0.81800
H1707       H  0.98011001  0.05514989  0.81540389    -0.05600
O1708       O  0.54674729  0.06378574  0.72766052    -0.87100
H1709       H  0.55381373  0.07446543  0.68282677    -0.05400
H1710       H  0.57499080  0.02051354  0.81508182    -0.05600
C1711       C  0.53517663  0.06615673  0.70222798     0.88000
C1712       C  0.96967576  0.03622652  0.79617221     0.88600
C1713       C  0.56637722  0.03073158  0.79580950     0.88600
H1714       H  0.51913752  0.44529981  0.68320932    -0.05600
O1715       O  0.94146194  0.44382946  0.69881538    -0.74600
Mg1716     Mg  0.58922028  0.04831962  0.72939048     1.58000
H1717       H  0.92515921  0.47966826  0.68337213    -0.05600
C1718       C  0.99753771  0.13112601  0.73881292     0.93600
O1719       O  0.60178664  0.13491389  0.76474070    -0.81800
C1720       C  0.63101444  0.13315021  0.75945442     0.93700
O1721       O  0.86515048  0.46745904  0.76481249    -0.81800
Mg1722     Mg  0.95839602  0.41047057  0.73054692     1.58200
O1723       O  0.52731367  0.13061365  0.74491258    -0.80100
O1724       O  0.53293678  0.39827857  0.76486179    -0.81800
N1725       N  0.78986482  0.00367305  0.52862092    -0.35700
N1726       N  0.78023287  0.99808087  0.96238417    -0.56200
N1727       N  0.71202743  0.00130614  0.96953137    -0.35700
N1728       N  0.71982462  0.00333371  0.53579714    -0.56200
C1729       C  0.81636577  0.99533535  0.52038924     0.27900
C1730       C  0.78474897  0.99832038  0.55920422     0.27900
C1731       C  0.71042695  0.99357141  0.93927164     0.27900
C1732       C  0.67797566  0.99508790  0.97812176     0.27900
C1733       C  0.81525329  0.00370131  0.96403041     0.36500
C1734       C  0.77474309  0.00395587  0.93295491     0.36500
C1735       C  0.73209110  0.01081650  0.56497924     0.36500
C1736       C  0.69067207  0.00931221  0.53383968     0.36500
C1737       C  0.82863684  0.98510831  0.54620725    -0.21000
C1738       C  0.80871942  0.98700327  0.57065137    -0.21000
C1739       C  0.67505952  0.98274632  0.92830708    -0.21000
C1740       C  0.65462940  0.98377977  0.95270618    -0.21000
C1741       C  0.83200705  0.01273894  0.93554344    -0.22000
C1742       C  0.80641991  0.01319282  0.91586517    -0.22000
C1743       C  0.71044379  0.02140594  0.58168838    -0.22000
C1744       C  0.68402681  0.02019221  0.56201399    -0.22000
C1745       C  0.83161607  0.99912327  0.49065995    -0.17400
C1746       C  0.76050217  0.00527827  0.57725030    -0.17400
C1747       C  0.66843102  0.00247838  0.50752361    -0.17400
C1748       C  0.74071546  0.99848528  0.92094814    -0.17400
H1749       H  0.85005555  0.97745694  0.54741165     0.15500
H1750       H  0.81182890  0.98107638  0.59422481     0.15500
H1751       H  0.66516155  0.97552262  0.90501204     0.15500
H1752       H  0.62602529  0.97763666  0.95146591     0.15500
H1753       H  0.85980354  0.01861049  0.92962581     0.13800
H1754       H  0.81077870  0.01984142  0.89179061     0.13800
H1755       H  0.71333858  0.02918902  0.60555872     0.13800
H1756       H  0.66230090  0.02635324  0.56789767     0.13800
H1757       H  0.77903513  0.01630033  0.51481181     0.27100
H1758       H  0.73611050  0.01438707  0.98260744     0.27100
N1759       N  0.78808550  0.00010748  0.71968694    -0.35700
N1760       N  0.71926623  0.00207299  0.71240743    -0.56200
N1761       N  0.70972833  0.99698153  0.77859950    -0.35700
N1762       N  0.78020769  0.99824271  0.78589789    -0.56200
C1763       C  0.78947136  0.00748613  0.68938235     0.27900
C1764       C  0.82236512  0.00701581  0.72836048     0.27900
C1765       C  0.68337656  0.00546820  0.77026948     0.27900
C1766       C  0.71501129  0.00269585  0.80914178     0.27900
C1767       C  0.72481724  0.99621005  0.68298393     0.36500
C1768       C  0.68425077  0.99646068  0.71398726     0.36500
C1769       C  0.80961658  0.99265560  0.78400528     0.36500
C1770       C  0.76762849  0.99024072  0.81495329     0.36500
C1771       C  0.82495680  0.01880359  0.67846827    -0.21000
C1772       C  0.84567007  0.01845829  0.70294703    -0.21000
C1773       C  0.67141411  0.01624251  0.79598737    -0.21000
C1774       C  0.69135057  0.01447238  0.82048172    -0.21000
C1775       C  0.69315356  0.98694565  0.66582905    -0.22000
C1776       C  0.66753781  0.98741621  0.68546190    -0.22000
C1777       C  0.81610678  0.98152824  0.81210469    -0.22000
C1778       C  0.78929207  0.97967513  0.83163696    -0.22000
C1779       C  0.75896226  0.00197480  0.67101091    -0.17400
C1780       C  0.83211067  0.99992616  0.75780066    -0.17400
C1781       C  0.73910138  0.99558214  0.82721561    -0.17400
C1782       C  0.66796254  0.00127409  0.74056100    -0.17400
H1783       H  0.83476652  0.02593073  0.65516113     0.15500
H1784       H  0.87442826  0.02509927  0.70174927     0.15500
H1785       H  0.65018086  0.02415611  0.79709403     0.15500
H1786       H  0.68847001  0.02078755  0.84400851     0.15500
H1787       H  0.68887683  0.98042247  0.64171301     0.13800
H1788       H  0.63979312  0.98165837  0.67947084     0.13800
H1789       H  0.83795727  0.97557722  0.81803883     0.13800
H1790       H  0.78618239  0.97154654  0.85541200     0.13800
H1791       H  0.76402630  0.98679452  0.73276020     0.27100
H1792       H  0.72030055  0.98395007  0.76492301     0.27100
N1793       N  0.71575304  0.20862577  0.52809630    -0.35700
N1794       N  0.71543657  0.22223378  0.96252971    -0.56200
N1795       N  0.78444706  0.29318464  0.96999757    -0.35700
N1796       N  0.78483246  0.27951719  0.53552809    -0.56200
C1797       C  0.68156977  0.18012575  0.52050434     0.27900
C1798       C  0.71736146  0.21100147  0.55909090     0.27900
C1799       C  0.78292449  0.29047813  0.93902043     0.27900
C1800       C  0.81885969  0.32133707  0.97752096     0.27900
C1801       C  0.68203314  0.19066558  0.96399341     0.36500
C1802       C  0.71949810  0.23438662  0.93341854     0.36500
C1803       C  0.78035846  0.26785964  0.56483309     0.36500
C1804       C  0.81792141  0.31150845  0.53415967     0.36500
C1805       C  0.66180204  0.16352515  0.54706094    -0.21000
C1806       C  0.68421994  0.18304024  0.57126065    -0.21000
C1807       C  0.81633905  0.31785405  0.92678358    -0.21000
C1808       C  0.83885808  0.33735434  0.95092886    -0.21000
C1809       C  0.66454013  0.18284377  0.93574489    -0.22000
C1810       C  0.68806361  0.21084483  0.91650395    -0.22000
C1811       C  0.81125294  0.29217122  0.58195382    -0.22000
C1812       C  0.83478883  0.32010013  0.56265805    -0.22000
C1813       C  0.66657582  0.16918340  0.99055292    -0.17400
C1814       C  0.74777780  0.23735632  0.57694857    -0.17400
C1815       C  0.83373489  0.33263926  0.00746980    -0.17400
C1816       C  0.75226215  0.26447039  0.92123653    -0.17400
H1817       H  0.63359797  0.14035075  0.54892303     0.15500
H1818       H  0.67670757  0.17742822  0.59514477     0.15500
H1819       H  0.82394003  0.32311334  0.90289562     0.15500
H1820       H  0.86724581  0.36016280  0.94901571     0.15500
H1821       H  0.63739264  0.15981485  0.92970856     0.13800
H1822       H  0.68238905  0.21382027  0.89289160     0.13800
H1823       H  0.81660188  0.28977636  0.60576167     0.13800
H1824       H  0.86154709  0.34362097  0.56884972     0.13800
H1825       H  0.73743880  0.22392357  0.51305513     0.27100
H1826       H  0.76253555  0.27847823  0.98501804     0.27100
N1827       N  0.71542471  0.22186953  0.78527210    -0.35700
N1828       N  0.71313652  0.21083669  0.71913164    -0.56200
N1829       N  0.78457186  0.27922587  0.71309593    -0.35700
N1830       N  0.78715643  0.28996238  0.77928489    -0.56200
C1831       C  0.68602291  0.18677703  0.78340650     0.27900
C1832       C  0.72586650  0.22815076  0.81501915     0.27900
C1833       C  0.77368000  0.27319628  0.68344566     0.27900
C1834       C  0.81333105  0.31465418  0.71509819     0.27900
C1835       C  0.68073265  0.17989980  0.72644554     0.36500
C1836       C  0.71641076  0.21071652  0.68833958     0.36500
C1837       C  0.78422395  0.28984360  0.81009609     0.36500
C1838       C  0.81970110  0.32069250  0.77198803     0.36500
C1839       C  0.67732578  0.17082982  0.81220833    -0.21000
C1840       C  0.70271630  0.19672015  0.83205213    -0.21000
C1841       C  0.79580464  0.30517378  0.66663276    -0.21000
C1842       C  0.82108997  0.33115125  0.68650613    -0.21000
C1843       C  0.66333917  0.16013740  0.70006471    -0.22000
C1844       C  0.68606460  0.17945037  0.67603799    -0.22000
C1845       C  0.81500484  0.32068458  0.82243700    -0.22000
C1846       C  0.83759223  0.34005576  0.79838184    -0.22000
C1847       C  0.66700742  0.16817807  0.75650889    -0.17400
C1848       C  0.75536989  0.26135151  0.82751151    -0.17400
C1849       C  0.83285542  0.33284062  0.74192287    -0.17400
C1850       C  0.74478166  0.23966271  0.67086031    -0.17400
H1851       H  0.65575879  0.14291537  0.81816573     0.15500
H1852       H  0.70483198  0.19221194  0.85609193     0.15500
H1853       H  0.79308166  0.30990551  0.64274638     0.15500
H1854       H  0.84202097  0.35939842  0.68073376     0.15500
H1855       H  0.63706349  0.13431897  0.69821797     0.13800
H1856       H  0.68039399  0.17176751  0.65217361     0.13800
H1857       H  0.82091587  0.32817610  0.84631450     0.13800
H1858       H  0.86399061  0.36575771  0.80019229     0.13800
H1859       H  0.72563691  0.24132557  0.76774155     0.27100
H1860       H  0.77528322  0.25940455  0.73036881     0.27100
C1861       C  0.75664142  0.26548868  0.86056610    -0.12300
C1862       C  0.75558258  0.26679264  0.88812192    -0.13900
C1863       C  0.74443197  0.23477525  0.61011515    -0.12300
C1864       C  0.74343187  0.23579345  0.63772535    -0.13900
C1865       C  0.73656592  0.99683626  0.88790659    -0.12300
C1866       C  0.73602797  0.99586433  0.86029033    -0.13900
C1867       C  0.76306285  0.00366703  0.63795797    -0.12300
C1868       C  0.76346436  0.00478862  0.61034004    -0.13900
C1869       C  0.50027396  0.23877971  0.86114958    -0.12300
C1870       C  0.50062956  0.23905305  0.88876777    -0.13900
C1871       C  0.50042741  0.26227464  0.63876553    -0.12300
C1872       C  0.50064776  0.26275879  0.61114826    -0.13900
N1873       N  0.50219572  0.72046411  0.03653418    -0.35700
N1874       N  0.00186991  0.79021706  0.02956761    -0.56200
N1875       N  0.50444106  0.78424475  0.46332645    -0.35700
N1876       N  0.50158091  0.71294846  0.47038266    -0.56200
C1877       C  0.99465814  0.72580990  0.06557519     0.27900
C1878       C  0.49450354  0.68474215  0.03432972     0.27900
C1879       C  0.99779937  0.81298004  0.46549967     0.27900
C1880       C  0.49657313  0.77139575  0.43427377     0.27900
C1881       C  0.00658926  0.79079663  0.06023912     0.36500
C1882       C  0.00790140  0.82432464  0.02163683     0.36500
C1883       C  0.50549418  0.68354605  0.47827587     0.36500
C1884       C  0.50576210  0.71657384  0.43966004     0.36500
C1885       C  0.98236829  0.69314474  0.08208562    -0.21000
C1886       C  0.48249936  0.66731779  0.06242152    -0.21000
C1887       C  0.98611438  0.81888872  0.43744865    -0.21000
C1888       C  0.48516768  0.79253828  0.41775986    -0.21000
C1889       C  0.01522703  0.82528237  0.07192998    -0.22000
C1890       C  0.01607325  0.84651557  0.04751507    -0.22000
C1891       C  0.51172419  0.66817549  0.45224428    -0.22000
C1892       C  0.51195047  0.68910809  0.42787099    -0.22000
C1893       C  0.00079029  0.75990686  0.07804997    -0.17400
C1894       C  0.50000370  0.66816919  0.00810217    -0.17400
C1895       C  0.50124874  0.74247608  0.42184952    -0.17400
C1896       C  0.00350166  0.83494189  0.99179130    -0.17400
H1897       H  0.97416342  0.68834597  0.10586885     0.15500
H1898       H  0.47475193  0.63899670  0.06826417     0.15500
H1899       H  0.97890223  0.83991583  0.43177634     0.15500
H1900       H  0.47682892  0.78924921  0.39400296     0.15500
H1901       H  0.01994740  0.83406879  0.09561795     0.13800
H1902       H  0.02157421  0.87490656  0.04876435     0.13800
H1903       H  0.51482036  0.64380921  0.45071199     0.13800
H1904       H  0.51542933  0.68413604  0.40411319     0.13800
H1905       H  0.51580004  0.74110348  0.02024286     0.27100
H1906       H  0.51743443  0.77657274  0.47973358     0.27100
N1907       N  0.49706190  0.71739958  0.21333756    -0.35700
N1908       N  0.49890157  0.78816128  0.22040215    -0.56200
N1909       N  0.49777622  0.78061769  0.28659297    -0.35700
N1910       N  0.49916316  0.71138652  0.27960222    -0.56200
C1911       C  0.50460047  0.72997394  0.18423181     0.27900
C1912       C  0.50355840  0.68859066  0.21549235     0.27900
C1913       C  0.50534229  0.81629181  0.28434153     0.27900
C1914       C  0.50563021  0.77551648  0.31559947     0.27900
C1915       C  0.49492386  0.78451804  0.18965480     0.36500
C1916       C  0.49446436  0.81727770  0.22826108     0.36500
C1917       C  0.49336969  0.67736040  0.27164074     0.36500
C1918       C  0.49418223  0.71071942  0.31023380     0.36500
C1919       C  0.51569734  0.70858645  0.16765748    -0.21000
C1920       C  0.51485042  0.68234445  0.18737047    -0.21000
C1921       C  0.51754187  0.83391765  0.31238058    -0.21000
C1922       C  0.51793705  0.80826820  0.33205559    -0.21000
C1923       C  0.48835117  0.81168986  0.17783522    -0.22000
C1924       C  0.48812821  0.83245534  0.20219705    -0.22000
C1925       C  0.48508213  0.65513487  0.29746781    -0.22000
C1926       C  0.48560531  0.67626420  0.32187841    -0.22000
C1927       C  0.49979724  0.75880461  0.17183641    -0.17400
C1928       C  0.49789969  0.66677223  0.24180512    -0.17400
C1929       C  0.49983292  0.74156354  0.32806943    -0.17400
C1930       C  0.49965956  0.83266129  0.25809011    -0.17400
H1931       H  0.52367951  0.71158127  0.14383201     0.15500
H1932       H  0.52179189  0.66112195  0.18165269     0.15500
H1933       H  0.52529765  0.86227284  0.31816646     0.15500
H1934       H  0.52636040  0.81324470  0.35579857     0.15500
H1935       H  0.48486393  0.81655975  0.15406449     0.13800
H1936       H  0.48464699  0.85658593  0.20064164     0.13800
H1937       H  0.47968093  0.62677887  0.29868857     0.13800
H1938       H  0.48071323  0.66743335  0.34553381     0.13800
H1939       H  0.48429650  0.72524651  0.22981507     0.27100
H1940       H  0.48409810  0.75985974  0.27034713     0.31700
O1941       O  0.51712098  0.95464360  0.02033277    -0.87400
C1942       C  0.56640007  0.53215232  0.45213280     0.88600
Mg1943     Mg  0.95955043  0.91154200  0.01860552     1.58100
O1944       O  0.54712641  0.56437292  0.02057303    -0.87100
O1945       O  0.55697547  0.49939841  0.04979470    -0.74500
C1946       C  0.86679899  0.49837562  0.48815893     0.93700
O1947       O  0.49886378  0.94322504  0.44799811    -0.74300
O1948       O  0.86548073  0.96762868  0.48266422    -0.81800
Mg1949     Mg  0.54921190  0.96039237  0.47974611     1.58000
C1950       C  0.99814279  0.63173645  0.01101645     0.93600
O1951       O  0.60272155  0.97406811  0.00561649    -0.80000
H1952       H  0.55463004  0.57520268  0.06538423    -0.05400
C1953       C  0.96974490  0.53682256  0.45254867     0.88500
O1954       O  0.94221884  0.94491338  0.04985795    -0.74600
O1955       O  0.56400813  0.51812144  0.47752489    -0.87300
O1956       O  0.52782179  0.63051654  0.00640192    -0.80100
C1957       C  0.63049592  0.63429303  0.48809786     0.93700
C1958       C  0.63357014  0.50390027  0.01002166     0.93600
Mg1959     Mg  0.95157226  0.54203511  0.01891468     1.58000
O1960       O  0.89699704  0.52796891  0.49478076    -0.80100
O1961       O  0.00233538  0.55898501  0.05021558    -0.74300
O1962       O  0.62985752  0.60382952  0.49338985    -0.80100
O1963       O  0.53435348  0.90010840  0.48366943    -0.81800
O1964       O  0.87066165  0.89787160  0.00307408    -0.80200
C1965       C  0.53582321  0.56685993  0.04607763     0.88000
O1966       O  0.93658384  0.98423900  0.02040358    -0.87300
O1967       O  0.98343350  0.54801653  0.47810694    -0.87400
O1968       O  0.94454424  0.00327026  0.44815793    -0.74500
Mg1969     Mg  0.59012138  0.54989233  0.01830148     1.58000
O1970       O  0.60108861  0.63597912  0.48382320    -0.81800
H1971       H  0.52106660  0.94719836  0.06504559    -0.05600
O1972       O  0.95371072  0.93739270  0.47748028    -0.87100
H1973       H  0.94651432  0.92641337  0.43267031    -0.05400
H1974       H  0.92531665  0.98035331  0.06513270    -0.05600
C1975       C  0.96523756  0.93494341  0.45204279     0.88000
C1976       C  0.53126646  0.96595940  0.04574449     0.88600
C1977       C  0.93396768  0.97022589  0.04580222     0.88600
H1978       H  0.98010839  0.55576605  0.43336796    -0.05600
O1979       O  0.55820047  0.55756944  0.44824337    -0.74600
Mg1980     Mg  0.91096928  0.95252544  0.47919825     1.58000
H1981       H  0.57489298  0.52203441  0.43269326    -0.05600
C1982       C  0.00364935  0.87053481  0.48879238     0.93600
O1983       O  0.89923050  0.86612325  0.01524052    -0.81800
C1984       C  0.86988888  0.86763426  0.00979779     0.93700
O1985       O  0.63554244  0.53516670  0.01404306    -0.81800
Mg1986     Mg  0.54109075  0.59072846  0.48021289     1.58200
O1987       O  0.97369525  0.87085488  0.49454948    -0.80100
O1988       O  0.96675299  0.60254444  0.01512084    -0.81800
O1989       O  0.98364092  0.54728318  0.27069559    -0.87400
C1990       C  0.93361563  0.96948164  0.20276266     0.88600
Mg1991     Mg  0.54137870  0.58991576  0.26875236     1.58100
O1992       O  0.95302529  0.93718439  0.27105657    -0.87100
O1993       O  0.94393729  0.00285138  0.30037643    -0.74500
C1994       C  0.63285403  0.50210016  0.23797703     0.93700
O1995       O  0.00158273  0.55799705  0.19821777    -0.74300
O1996       O  0.63434705  0.53296373  0.23287176    -0.81800
Mg1997     Mg  0.95144784  0.54140863  0.23002013     1.58000
C1998       C  0.00148853  0.86910457  0.26090229     0.93600
O1999       O  0.89790678  0.52834968  0.25563446    -0.80000
H2000       H  0.94580589  0.92614787  0.31583530    -0.05400
C2001       C  0.52974682  0.96412337  0.20249666     0.88500
O2002       O  0.55857492  0.55636255  0.29992417    -0.74600
O2003       O  0.93632542  0.98367532  0.22814844    -0.87300
O2004       O  0.97179693  0.87035656  0.25629270    -0.80100
C2005       C  0.86883219  0.86774233  0.23900292     0.93700
C2006       C  0.86707408  0.49862878  0.26036578     0.93600
Mg2007     Mg  0.54832917  0.95876588  0.26871059     1.58000
O2008       O  0.60251108  0.97243951  0.24406332    -0.80100
O2009       O  0.49787640  0.94198963  0.30033569    -0.74300
O2010       O  0.86973472  0.89838231  0.24407642    -0.80100
O2011       O  0.96675339  0.60170675  0.23352065    -0.81800
O2012       O  0.63009691  0.60260793  0.25373507    -0.80200
C2013       C  0.96444865  0.93446041  0.29643977     0.88000
O2014       O  0.56344594  0.51659123  0.27039274    -0.87300
O2015       O  0.51621025  0.95282255  0.22806822    -0.87400
O2016       O  0.55511701  0.49763909  0.19822503    -0.74500
Mg2017     Mg  0.91025022  0.95223465  0.26898155     1.58000
O2018       O  0.89808721  0.86578859  0.23461494    -0.81800
H2019       H  0.98010708  0.55514893  0.31540302    -0.05600
O2020       O  0.54674703  0.56378611  0.22766055    -0.87100
H2021       H  0.55381346  0.57446550  0.18282681    -0.05400
H2022       H  0.57498973  0.52051284  0.31508136    -0.05600
C2023       C  0.53517632  0.56615688  0.20222798     0.88000
C2024       C  0.96967346  0.53622558  0.29617131     0.88600
C2025       C  0.56637628  0.53073125  0.29580919     0.88600
H2026       H  0.51913804  0.94530111  0.18320772    -0.05600
O2027       O  0.94146078  0.94382939  0.19881402    -0.74600
Mg2028     Mg  0.58922022  0.54832053  0.22939019     1.58000
H2029       H  0.92515733  0.97966765  0.18337077    -0.05600
C2030       C  0.99753719  0.63112556  0.23881332     0.93600
O2031       O  0.60178572  0.63491406  0.26474164    -0.81800
C2032       C  0.63101369  0.63315077  0.25945503     0.93700
O2033       O  0.86514894  0.96745848  0.26481018    -0.81800
Mg2034     Mg  0.95839584  0.91047080  0.23054533     1.58200
O2035       O  0.52731336  0.63061334  0.24491249    -0.80100
O2036       O  0.53293685  0.89827932  0.26486086    -0.81800
N2037       N  0.78986212  0.50366951  0.02862025    -0.35700
N2038       N  0.78023216  0.49807828  0.46238456    -0.56200
N2039       N  0.71202657  0.50130311  0.46953161    -0.35700
N2040       N  0.71982370  0.50333384  0.03579643    -0.56200
C2041       C  0.81636341  0.49533226  0.02038854     0.27900
C2042       C  0.78474591  0.49831642  0.05920346     0.27900
C2043       C  0.71042617  0.49356950  0.43927165     0.27900
C2044       C  0.67797538  0.49508637  0.47812207     0.27900
C2045       C  0.81525282  0.50369919  0.46403078     0.36500
C2046       C  0.77474178  0.50395202  0.43295503     0.36500
C2047       C  0.73208952  0.51081502  0.06497873     0.36500
C2048       C  0.69067150  0.50931289  0.03383915     0.36500
C2049       C  0.82863409  0.48510469  0.04620646    -0.21000
C2050       C  0.80871617  0.48699900  0.07065054    -0.21000
C2051       C  0.67505929  0.48274662  0.42830696    -0.21000
C2052       C  0.65462944  0.48378016  0.45270628    -0.21000
C2053       C  0.83200596  0.51273557  0.43554355    -0.22000
C2054       C  0.80641835  0.51318840  0.41586520    -0.22000
C2055       C  0.71044216  0.52140418  0.08168821    -0.22000
C2056       C  0.68402576  0.52019174  0.06201378    -0.22000
C2057       C  0.83161481  0.49912194  0.99065945    -0.17400
C2058       C  0.76049962  0.50527507  0.07724959    -0.17400
C2059       C  0.66843071  0.50247940  0.00752301    -0.17400
C2060       C  0.74071434  0.49848222  0.42094817    -0.17400
H2061       H  0.85005327  0.47745398  0.04741087     0.15500
H2062       H  0.81182563  0.48107206  0.09422398     0.15500
H2063       H  0.66516154  0.47552437  0.40501173     0.15500
H2064       H  0.62602584  0.47763869  0.45146606     0.15500
H2065       H  0.85980250  0.51860739  0.42962584     0.13800
H2066       H  0.81077689  0.51983653  0.39179056     0.13800
H2067       H  0.71333623  0.52918580  0.10555887     0.13800
H2068       H  0.66229962  0.52635237  0.06789769     0.13800
H2069       H  0.77903278  0.51629729  0.01481136     0.27100
H2070       H  0.73610941  0.51438220  0.48260803     0.27100
N2071       N  0.78808481  0.50010838  0.21968606    -0.35700
N2072       N  0.71926609  0.50207447  0.21240647    -0.56200
N2073       N  0.70972839  0.49698213  0.27859894    -0.35700
N2074       N  0.78020723  0.49824278  0.28589720    -0.56200
C2075       C  0.78947023  0.50748615  0.18938136     0.27900
C2076       C  0.82236434  0.50701638  0.22835939     0.27900
C2077       C  0.68337714  0.50546959  0.27026901     0.27900
C2078       C  0.71501103  0.50269561  0.30914138     0.27900
C2079       C  0.72481602  0.49620958  0.18298323     0.36500
C2080       C  0.68425051  0.49646165  0.21398672     0.36500
C2081       C  0.80961608  0.49265567  0.28400421     0.36500
C2082       C  0.76762795  0.49024007  0.31495254     0.36500
C2083       C  0.82495546  0.51880317  0.17846702    -0.21000
C2084       C  0.84566898  0.51845823  0.20294573    -0.21000
C2085       C  0.67141482  0.51624370  0.29598707    -0.21000
C2086       C  0.69135063  0.51447241  0.32048145    -0.21000
C2087       C  0.69315158  0.48694359  0.16582884    -0.22000
C2088       C  0.66753641  0.48741514  0.18546181    -0.22000
C2089       C  0.81610629  0.48152775  0.31210335    -0.22000
C2090       C  0.78929150  0.47967410  0.33163580    -0.22000
C2091       C  0.75896069  0.50197369  0.17101003    -0.17400
C2092       C  0.83210986  0.49992629  0.25779940    -0.17400
C2093       C  0.73910074  0.49558114  0.32721516    -0.17400
C2094       C  0.66796294  0.50127570  0.24056056    -0.17400
H2095       H  0.83476474  0.52592939  0.15515968     0.15500
H2096       H  0.87442697  0.52509859  0.20174778     0.15500
H2097       H  0.65018190  0.52415771  0.29709385     0.15500
H2098       H  0.68846982  0.52078705  0.34400834     0.15500
H2099       H  0.68887395  0.48041852  0.14171312     0.13800
H2100       H  0.63979121  0.48165619  0.17947122     0.13800
H2101       H  0.83795671  0.47557650  0.31803719     0.13800
H2102       H  0.78618166  0.47154479  0.35541065     0.13800
H2103       H  0.76402571  0.48679558  0.23275949     0.27100
H2104       H  0.72030026  0.48395054  0.26492222     0.27100
N2105       N  0.71575155  0.70862521  0.02809577    -0.35700
N2106       N  0.71543709  0.72223356  0.46253034    -0.56200
N2107       N  0.78444707  0.79318466  0.46999823    -0.35700
N2108       N  0.78483090  0.77951678  0.03552789    -0.56200
C2109       C  0.68156852  0.68012500  0.02050353     0.27900
C2110       C  0.71735993  0.71100047  0.05909038     0.27900
C2111       C  0.78292422  0.79047846  0.43902105     0.27900
C2112       C  0.81885956  0.82133738  0.47752159     0.27900
C2113       C  0.68203355  0.69066548  0.46399433     0.36500
C2114       C  0.71949806  0.73438669  0.43341926     0.36500
C2115       C  0.78035710  0.76785845  0.06483268     0.36500
C2116       C  0.81792046  0.81150741  0.03415948     0.36500
C2117       C  0.66180093  0.66352369  0.04706003    -0.21000
C2118       C  0.68421861  0.68303866  0.07125993    -0.21000
C2119       C  0.81633850  0.81785479  0.42678416    -0.21000
C2120       C  0.83885760  0.83735500  0.45092944    -0.21000
C2121       C  0.66453998  0.68284403  0.43574609    -0.22000
C2122       C  0.68806321  0.71084508  0.41650500    -0.22000
C2123       C  0.81125229  0.79216887  0.08195324    -0.22000
C2124       C  0.83478844  0.82009787  0.06265762    -0.22000
C2125       C  0.66657666  0.66918304  0.49055384    -0.17400
C2126       C  0.74777621  0.73735531  0.07694816    -0.17400
C2127       C  0.83373477  0.83263988  0.50747043    -0.17400
C2128       C  0.75226172  0.76447093  0.42123712    -0.17400
H2129       H  0.63359709  0.64034887  0.04892197     0.15500
H2130       H  0.67670623  0.67742605  0.09514401     0.15500
H2131       H  0.82393919  0.82311452  0.40289617     0.15500
H2132       H  0.86724512  0.86016383  0.44901622     0.15500
H2133       H  0.63739223  0.65981536  0.42971006     0.13800
H2134       H  0.68238815  0.71382066  0.39289281     0.13800
H2135       H  0.81660171  0.78977297  0.10576077     0.13800
H2136       H  0.86154737  0.84361779  0.06884917     0.13800
H2137       H  0.73743722  0.72392363  0.01305471     0.27100
H2138       H  0.76253570  0.77847803  0.48501878     0.27100
N2139       N  0.71542377  0.72187067  0.28527231    -0.35700
N2140       N  0.71313539  0.71083713  0.21913162    -0.56200
N2141       N  0.78457135  0.77922532  0.21309569    -0.35700
N2142       N  0.78715525  0.78996344  0.27928484    -0.56200
C2143       C  0.68602241  0.68677789  0.28340679     0.27900
C2144       C  0.72586553  0.72815227  0.31501940     0.27900
C2145       C  0.77368007  0.77319541  0.18344525     0.27900
C2146       C  0.81333141  0.81465317  0.21509773     0.27900
C2147       C  0.68073142  0.67990044  0.22644577     0.36500
C2148       C  0.71640932  0.71071678  0.18833954     0.36500
C2149       C  0.78422242  0.78984549  0.31009603     0.36500
C2150       C  0.81970035  0.82069295  0.27198773     0.36500
C2151       C  0.67732574  0.67083071  0.31220865    -0.21000
C2152       C  0.70271586  0.69672148  0.33205245    -0.21000
C2153       C  0.79580615  0.80517219  0.16663203    -0.21000
C2154       C  0.82109166  0.83114948  0.18650534    -0.21000
C2155       C  0.66333752  0.66013799  0.20006503    -0.22000
C2156       C  0.68606280  0.67945077  0.17603816    -0.22000
C2157       C  0.81500343  0.82068658  0.32243669    -0.22000
C2158       C  0.83759135  0.84005671  0.29838140    -0.22000
C2159       C  0.66700655  0.66817884  0.25650928    -0.17400
C2160       C  0.75536838  0.76135354  0.32751169    -0.17400
C2161       C  0.83285531  0.83284007  0.24192246    -0.17400
C2162       C  0.74478067  0.73966234  0.17086006    -0.17400
H2163       H  0.65575913  0.64291610  0.31816607     0.15500
H2164       H  0.70483151  0.69221352  0.35609231     0.15500
H2165       H  0.79308389  0.80990374  0.14274548     0.15500
H2166       H  0.84202358  0.85939620  0.18073270     0.15500
H2167       H  0.63706170  0.63431966  0.19821843     0.13800
H2168       H  0.68039203  0.67176778  0.15217382     0.13800
H2169       H  0.82091436  0.82817869  0.34631412     0.13800
H2170       H  0.86399012  0.86575825  0.30019165     0.13800
H2171       H  0.72563546  0.74132664  0.26774169     0.27100
H2172       H  0.77528152  0.75940458  0.23036905     0.27100
C2173       C  0.75663996  0.76549083  0.36056641    -0.12300
C2174       C  0.75558144  0.76679415  0.38812237    -0.13900
C2175       C  0.74443034  0.73477434  0.11011480    -0.12300
C2176       C  0.74343046  0.73579282  0.13772504    -0.13900
C2177       C  0.73656495  0.49683368  0.38790644    -0.12300
C2178       C  0.73602711  0.49586245  0.36029006    -0.13900
C2179       C  0.76306051  0.50366419  0.13795713    -0.12300
C2180       C  0.76346171  0.50478509  0.11033923    -0.13900
C2181       C  0.50027395  0.73878143  0.36115006    -0.12300
C2182       C  0.50062810  0.73905352  0.38876834    -0.13900
C2183       C  0.50042632  0.76227332  0.13876436    -0.12300
C2184       C  0.50064684  0.76275807  0.11114704    -0.13900
N2185       N  0.50219571  0.72046402  0.53653564    -0.35700
N2186       N  0.00186749  0.79021575  0.52956901    -0.56200
N2187       N  0.50444673  0.78424718  0.96332536    -0.35700
N2188       N  0.50158526  0.71295013  0.97038187    -0.56200
C2189       C  0.99466026  0.72581030  0.56557697     0.27900
C2190       C  0.49450462  0.68474242  0.53433140     0.27900
C2191       C  0.99780301  0.81298147  0.96549842     0.27900
C2192       C  0.49657739  0.77139689  0.93427309     0.27900
C2193       C  0.00658832  0.79079598  0.56024038     0.36500
C2194       C  0.00789904  0.82432333  0.52163812     0.36500
C2195       C  0.50549871  0.68354797  0.97827524     0.36500
C2196       C  0.50576820  0.71657631  0.93965952     0.36500
C2197       C  0.98237312  0.69314595  0.58208799    -0.21000
C2198       C  0.48250330  0.66731887  0.56242382    -0.21000
C2199       C  0.98611622  0.81888853  0.93744765    -0.21000
C2200       C  0.48516982  0.79253774  0.91775931    -0.21000
C2201       C  0.01522685  0.82528201  0.57193102    -0.22000
C2202       C  0.01607221  0.84651478  0.54751616    -0.22000
C2203       C  0.51173108  0.66817859  0.95224397    -0.22000
C2204       C  0.51195831  0.68911160  0.92787068    -0.22000
C2205       C  0.00079080  0.75990685  0.57805138    -0.17400
C2206       C  0.50000251  0.66816874  0.50810327    -0.17400
C2207       C  0.50125332  0.74247741  0.92184901    -0.17400
C2208       C  0.00349905  0.83494060  0.49179266    -0.17400
H2209       H  0.97416993  0.68834765  0.60587161     0.15500
H2210       H  0.47475709  0.63899814  0.56826669     0.15500
H2211       H  0.97890216  0.83991428  0.93177544     0.15500
H2212       H  0.47682943  0.78924727  0.89400277     0.15500
H2213       H  0.01994881  0.83406910  0.59561880     0.13800
H2214       H  0.02157384  0.87490600  0.54876534     0.13800
H2215       H  0.51482754  0.64381248  0.95071175     0.13800
H2216       H  0.51543845  0.68414021  0.90411299     0.13800
H2217       H  0.51579773  0.74110285  0.52024351     0.27100
H2218       H  0.51744150  0.77657635  0.97973224     0.27100
N2219       N  0.49706287  0.71740028  0.71333826    -0.35700
N2220       N  0.49890132  0.78816110  0.72040335    -0.56200
N2221       N  0.49777594  0.78061658  0.78659365    -0.35700
N2222       N  0.49916148  0.71138493  0.77960232    -0.56200
C2223       C  0.50460345  0.72997624  0.68423305     0.27900
C2224       C  0.50356057  0.68859212  0.71549300     0.27900
C2225       C  0.50534255  0.81629088  0.78434256     0.27900
C2226       C  0.50563021  0.77551501  0.81559991     0.27900
C2227       C  0.49492357  0.78451810  0.68965606     0.36500
C2228       C  0.49446319  0.81727684  0.72826257     0.36500
C2229       C  0.49336741  0.67735877  0.77164046     0.36500
C2230       C  0.49417982  0.71071723  0.81023375     0.36500
C2231       C  0.51570322  0.70859086  0.66765907    -0.21000
C2232       C  0.51485579  0.68234830  0.68737170    -0.21000
C2233       C  0.51754286  0.83391657  0.81238158    -0.21000
C2234       C  0.51793790  0.80826676  0.83205624    -0.21000
C2235       C  0.48834972  0.81168928  0.67783673    -0.22000
C2236       C  0.48812621  0.83245424  0.70219876    -0.22000
C2237       C  0.48507834  0.65513236  0.79746715    -0.22000
C2238       C  0.48560153  0.67626143  0.82187798    -0.22000
C2239       C  0.49979860  0.75880584  0.67183763    -0.17400
C2240       C  0.49789954  0.66677198  0.74180505    -0.17400
C2241       C  0.49983203  0.74156166  0.82806956    -0.17400
C2242       C  0.49965917  0.83266043  0.75809157    -0.17400
H2243       H  0.52368728  0.71158728  0.64383399     0.15500
H2244       H  0.52179871  0.66112681  0.68165408     0.15500
H2245       H  0.52529902  0.86227181  0.81816767     0.15500
H2246       H  0.52636155  0.81324298  0.85579916     0.15500
H2247       H  0.48486243  0.81655932  0.65406604     0.13800
H2248       H  0.48464443  0.85658452  0.70064357     0.13800
H2249       H  0.47967668  0.62677619  0.79868754     0.13800
H2250       H  0.48070897  0.66743015  0.84553328     0.13800
H2251       H  0.48429481  0.72524514  0.72981501     0.27100
H2252       H  0.48409708  0.75985872  0.77034783     0.31700
O2253       O  0.51712201  0.95464386  0.52033428    -0.87400
C2254       C  0.56639951  0.53215200  0.95213128     0.88600
Mg2255     Mg  0.95955111  0.91154234  0.51860650     1.58100
O2256       O  0.54712737  0.56437291  0.52057504    -0.87100
O2257       O  0.55697568  0.49939759  0.54979593    -0.74500
C2258       C  0.86679821  0.49837489  0.98815780     0.93700
O2259       O  0.49886244  0.94322521  0.94799660    -0.74300
O2260       O  0.86547914  0.96762749  0.98266487    -0.81800
Mg2261     Mg  0.54921091  0.96039296  0.97974420     1.58000
C2262       C  0.99814323  0.63173654  0.51101766     0.93600
O2263       O  0.60272219  0.97406707  0.50561872    -0.80000
H2264       H  0.55463019  0.57520075  0.56538655    -0.05400
C2265       C  0.96974402  0.53682128  0.95254674     0.88500
O2266       O  0.94222015  0.94491367  0.54985937    -0.74600
O2267       O  0.56400754  0.51812157  0.97752358    -0.87300
O2268       O  0.52782215  0.63051717  0.50640384    -0.80100
C2269       C  0.63049501  0.63429312  0.98809641     0.93700
C2270       C  0.63357009  0.50389905  0.51002247     0.93600
Mg2271     Mg  0.95157325  0.54203518  0.51891674     1.58000
O2272       O  0.89699656  0.52796878  0.99477777    -0.80100
O2273       O  0.00233665  0.55898454  0.55021729    -0.74300
O2274       O  0.62985662  0.60382963  0.99338826    -0.80100
O2275       O  0.53435361  0.90010932  0.98366644    -0.81800
O2276       O  0.87066232  0.89787199  0.50307375    -0.80200
C2277       C  0.53582373  0.56685890  0.54607974     0.88000
O2278       O  0.93658468  0.98423909  0.52040508    -0.87300
O2279       O  0.98343257  0.54801603  0.97810496    -0.87400
O2280       O  0.94454253  0.00326916  0.94815678    -0.74500
Mg2281     Mg  0.59012203  0.54989181  0.51830290     1.58000
O2282       O  0.60108773  0.63597911  0.98382129    -0.81800
H2283       H  0.52106806  0.94719807  0.56504697    -0.05600
O2284       O  0.95370943  0.93739192  0.97747920    -0.87100
H2285       H  0.94651250  0.92641210  0.93266932    -0.05400
H2286       H  0.92531767  0.98035328  0.56513425    -0.05600
C2287       C  0.96523604  0.93494266  0.95204161     0.88000
C2288       C  0.53126785  0.96595928  0.54574597     0.88600
C2289       C  0.93396867  0.97022594  0.54580370     0.88600
H2290       H  0.98010748  0.55576424  0.93336569    -0.05600
O2291       O  0.55819978  0.55756895  0.94824132    -0.74600
Mg2292     Mg  0.91096788  0.95252458  0.97919763     1.58000
H2293       H  0.57489244  0.52203369  0.93269202    -0.05600
C2294       C  0.00365040  0.87053535  0.98879098     0.93600
O2295       O  0.89923105  0.86612395  0.51524161    -0.81800
C2296       C  0.86988949  0.86763480  0.50979821     0.93700
O2297       O  0.63554260  0.53516557  0.51404390    -0.81800
Mg2298     Mg  0.54109000  0.59072810  0.98021070     1.58200
O2299       O  0.97369624  0.87085464  0.99454993    -0.80100
O2300       O  0.96675386  0.60254426  0.51512263    -0.81800
O2301       O  0.98364235  0.54728426  0.77069628    -0.87400
C2302       C  0.93361798  0.96948233  0.70276340     0.88600
Mg2303     Mg  0.54137966  0.58991626  0.76875280     1.58100
O2304       O  0.95302612  0.93718405  0.77105738    -0.87100
O2305       O  0.94393915  0.00285131  0.80037729    -0.74500
C2306       C  0.63285379  0.50209935  0.73797729     0.93700
O2307       O  0.00158296  0.55799668  0.69821799    -0.74300
O2308       O  0.63434695  0.53296313  0.73287276    -0.81800
Mg2309     Mg  0.95144856  0.54140866  0.73002093     1.58000
C2310       C  0.00148755  0.86910335  0.76090376     0.93600
O2311       O  0.89790773  0.52835018  0.75563554    -0.80000
H2312       H  0.94580600  0.92614710  0.81583604    -0.05400
C2313       C  0.52974668  0.96412156  0.70249795     0.88500
O2314       O  0.55857665  0.55636344  0.79992453    -0.74600
O2315       O  0.93632734  0.98367585  0.72814920    -0.87300
O2316       O  0.97179617  0.87035579  0.75629434    -0.80100
C2317       C  0.86883248  0.86774297  0.73900275     0.93700
C2318       C  0.86707529  0.49862939  0.76036811     0.93600
Mg2319     Mg  0.54832939  0.95876505  0.76871197     1.58000
O2320       O  0.60251119  0.97243843  0.74406439    -0.80100
O2321       O  0.49787681  0.94198899  0.80033718    -0.74300
O2322       O  0.86973562  0.89838322  0.74407635    -0.80100
O2323       O  0.96675419  0.60170681  0.73351998    -0.81800
O2324       O  0.63009733  0.60260758  0.75373525    -0.80200
C2325       C  0.96444903  0.93445973  0.79644069     0.88000
O2326       O  0.56344659  0.51659119  0.77039349    -0.87300
O2327       O  0.51621035  0.95282095  0.72806959    -0.87400
O2328       O  0.55511649  0.49763844  0.69822605    -0.74500
Mg2329     Mg  0.91025162  0.95223491  0.76898223     1.58000
O2330       O  0.89808724  0.86578861  0.73461534    -0.81800
H2331       H  0.98011027  0.55515065  0.81540383    -0.05600
O2332       O  0.54674711  0.56378600  0.72766102    -0.87100
H2333       H  0.55381319  0.57446551  0.68282724    -0.05400
H2334       H  0.57499131  0.52051370  0.81508199    -0.05600
C2335       C  0.53517620  0.56615677  0.70222852     0.88000
C2336       C  0.96967593  0.53622697  0.79617236     0.88600
C2337       C  0.56637756  0.53073179  0.79580979     0.88600
H2338       H  0.51913798  0.94529906  0.68320915    -0.05600
O2339       O  0.94146257  0.94382966  0.69881489    -0.74600
Mg2340     Mg  0.58922023  0.54832010  0.72939078     1.58000
H2341       H  0.92516052  0.97966886  0.68337135    -0.05600
C2342       C  0.99753782  0.63112574  0.73881283     0.93600
O2343       O  0.60178651  0.63491422  0.76474118    -0.81800
C2344       C  0.63101433  0.63315061  0.75945479     0.93700
O2345       O  0.86515054  0.96745892  0.76481138    -0.81800
Mg2346     Mg  0.95839617  0.91047014  0.73054630     1.58200
O2347       O  0.52731344  0.63061344  0.74491323    -0.80100
O2348       O  0.53293670  0.89827832  0.76486262    -0.81800
N2349       N  0.78986424  0.50367236  0.52862130    -0.35700
N2350       N  0.78023290  0.49808030  0.96238404    -0.56200
N2351       N  0.71202746  0.50130550  0.96953150    -0.35700
N2352       N  0.71982417  0.50333335  0.53579722    -0.56200
C2353       C  0.81636546  0.49533501  0.52038974     0.27900
C2354       C  0.78474869  0.49832027  0.55920466     0.27900
C2355       C  0.71042662  0.49356999  0.93927191     0.27900
C2356       C  0.67797558  0.49508676  0.97812205     0.27900
C2357       C  0.81525349  0.50370124  0.96403023     0.36500
C2358       C  0.77474307  0.50395562  0.93295489     0.36500
C2359       C  0.73209047  0.51081598  0.56497942     0.36500
C2360       C  0.69067157  0.50931180  0.53383964     0.36500
C2361       C  0.82863710  0.48510885  0.54620792    -0.21000
C2362       C  0.80871967  0.48700392  0.57065199    -0.21000
C2363       C  0.67505882  0.48274367  0.92830762    -0.21000
C2364       C  0.65462884  0.48377730  0.95270675    -0.21000
C2365       C  0.83200741  0.51273962  0.93554330    -0.22000
C2366       C  0.80642007  0.51319336  0.91586512    -0.22000
C2367       C  0.71044300  0.52140526  0.58168849    -0.22000
C2368       C  0.68402614  0.52019160  0.56201398    -0.22000
C2369       C  0.83161551  0.49912258  0.49066038    -0.17400
C2370       C  0.76050170  0.50527803  0.57725062    -0.17400
C2371       C  0.66843057  0.50247807  0.50752347    -0.17400
C2372       C  0.74071519  0.49848448  0.92094827    -0.17400
H2373       H  0.85005622  0.47745806  0.54741247     0.15500
H2374       H  0.81182954  0.48107767  0.59422552     0.15500
H2375       H  0.66516053  0.47551910  0.90501272     0.15500
H2376       H  0.62602451  0.47763355  0.95146668     0.15500
H2377       H  0.85980405  0.51861165  0.92962566     0.13800
H2378       H  0.81077878  0.51984233  0.89179061     0.13800
H2379       H  0.71333760  0.52918820  0.60555886     0.13800
H2380       H  0.66230012  0.52635248  0.56789761     0.13800
H2381       H  0.77903418  0.51629910  0.51481197     0.27100
H2382       H  0.73611084  0.51438747  0.98260717     0.27100
N2383       N  0.78808547  0.50010737  0.71968739    -0.35700
N2384       N  0.71926653  0.50207375  0.71240780    -0.56200
N2385       N  0.70972817  0.49698196  0.77859975    -0.35700
N2386       N  0.78020746  0.49824274  0.78589824    -0.56200
C2387       C  0.78947132  0.50748585  0.68938277     0.27900
C2388       C  0.82236503  0.50701554  0.72836096     0.27900
C2389       C  0.68337676  0.50546912  0.77026967     0.27900
C2390       C  0.71501120  0.50269633  0.80914200     0.27900
C2391       C  0.72481737  0.49621030  0.68298440     0.36500
C2392       C  0.68425099  0.49646127  0.71398757     0.36500
C2393       C  0.80961646  0.49265576  0.78400582     0.36500
C2394       C  0.76762816  0.49024080  0.81495362     0.36500
C2395       C  0.82495666  0.51880296  0.67846865    -0.21000
C2396       C  0.84566990  0.51845765  0.70294744    -0.21000
C2397       C  0.67141459  0.51624383  0.79598748    -0.21000
C2398       C  0.69135089  0.51447341  0.82048185    -0.21000
C2399       C  0.69315358  0.48694549  0.66582956    -0.22000
C2400       C  0.66753787  0.48741626  0.68546230    -0.22000
C2401       C  0.81610662  0.48152859  0.81210533    -0.22000
C2402       C  0.78929176  0.47967539  0.83163747    -0.22000
C2403       C  0.75896228  0.50197475  0.67101134    -0.17400
C2404       C  0.83211063  0.49992621  0.75780125    -0.17400
C2405       C  0.73910102  0.49558224  0.82721584    -0.17400
C2406       C  0.66796273  0.50127489  0.74056119    -0.17400
H2407       H  0.83476633  0.52592989  0.65516146     0.15500
H2408       H  0.87442802  0.52509842  0.70174969     0.15500
H2409       H  0.65018163  0.52415782  0.79709412     0.15500
H2410       H  0.68847052  0.52078878  0.84400862     0.15500
H2411       H  0.68887673  0.48042179  0.64171361     0.13800
H2412       H  0.63979308  0.48165811  0.67947123     0.13800
H2413       H  0.83795721  0.47557778  0.81803962     0.13800
H2414       H  0.78618205  0.47154695  0.85541256     0.13800
H2415       H  0.76402623  0.48679465  0.73276069     0.27100
H2416       H  0.72030004  0.48395011  0.76492335     0.27100
N2417       N  0.71575301  0.70862511  0.52809649    -0.35700
N2418       N  0.71543652  0.72223356  0.96252952    -0.56200
N2419       N  0.78444657  0.79318466  0.96999751    -0.35700
N2420       N  0.78483279  0.77951634  0.53552837    -0.56200
C2421       C  0.68156994  0.68012481  0.52050449     0.27900
C2422       C  0.71736181  0.71100018  0.55909109     0.27900
C2423       C  0.78292422  0.79047815  0.93902037     0.27900
C2424       C  0.81885907  0.82133729  0.97752099     0.27900
C2425       C  0.68203301  0.69066546  0.96399327     0.36500
C2426       C  0.71949798  0.73438653  0.93341837     0.36500
C2427       C  0.78035848  0.76785901  0.56483344     0.36500
C2428       C  0.81792136  0.81150806  0.53416015     0.36500
C2429       C  0.66180277  0.66352327  0.54706110    -0.21000
C2430       C  0.68422077  0.68303814  0.57126083    -0.21000
C2431       C  0.81633877  0.81785419  0.92678360    -0.21000
C2432       C  0.83885759  0.83735462  0.95092895    -0.21000
C2433       C  0.66453993  0.68284387  0.93574481    -0.22000
C2434       C  0.68806340  0.71084490  0.91650384    -0.22000
C2435       C  0.81125249  0.79217113  0.58195440    -0.22000
C2436       C  0.83478837  0.82010013  0.56265867    -0.22000
C2437       C  0.66657568  0.66918313  0.99055274    -0.17400
C2438       C  0.74777790  0.73735542  0.57694878    -0.17400
C2439       C  0.83373408  0.83263948  0.00746988    -0.17400
C2440       C  0.75226195  0.76447049  0.92123639    -0.17400
H2441       H  0.63359897  0.64034842  0.54892327     0.15500
H2442       H  0.67670871  0.67742540  0.59514495     0.15500
H2443       H  0.82393985  0.82311351  0.90289566     0.15500
H2444       H  0.86724528  0.86016318  0.94901589     0.15500
H2445       H  0.63739230  0.65981515  0.92970858     0.13800
H2446       H  0.68238862  0.71382054  0.89289160     0.13800
H2447       H  0.81660105  0.78977674  0.60576244     0.13800
H2448       H  0.86154626  0.84362138  0.56885053     0.13800
H2449       H  0.73743837  0.72392379  0.51305526     0.27100
H2450       H  0.76253502  0.77847821  0.98501788     0.27100
N2451       N  0.71542448  0.72187039  0.78527204    -0.35700
N2452       N  0.71313630  0.71083695  0.71913174    -0.56200
N2453       N  0.78457122  0.77922652  0.71309563    -0.35700
N2454       N  0.78715644  0.78996317  0.77928453    -0.56200
C2455       C  0.68602266  0.68677787  0.78340664     0.27900
C2456       C  0.72586625  0.72815194  0.81501909     0.27900
C2457       C  0.77367877  0.77319697  0.68344551     0.27900
C2458       C  0.81333008  0.81465497  0.71509779     0.27900
C2459       C  0.68073268  0.67989980  0.72644573     0.36500
C2460       C  0.71641063  0.71071652  0.68833972     0.36500
C2461       C  0.78422421  0.78984445  0.81009577     0.36500
C2462       C  0.81970140  0.82069287  0.77198751     0.36500
C2463       C  0.67732549  0.67083096  0.81220858    -0.21000
C2464       C  0.70271600  0.69672147  0.83205225    -0.21000
C2465       C  0.79580256  0.80517471  0.66663257    -0.21000
C2466       C  0.82108807  0.83115226  0.68650582    -0.21000
C2467       C  0.66333949  0.66013691  0.70006501    -0.22000
C2468       C  0.68606486  0.67944990  0.67603826    -0.22000
C2469       C  0.81500558  0.82068510  0.82243657    -0.22000
C2470       C  0.83759301  0.84005591  0.79838127    -0.22000
C2471       C  0.66700729  0.66817850  0.75650911    -0.17400
C2472       C  0.75536987  0.76135269  0.82751129    -0.17400
C2473       C  0.83285532  0.83284104  0.74192226    -0.17400
C2474       C  0.74478098  0.73966300  0.67086032    -0.17400
H2475       H  0.65575858  0.64291652  0.81816608     0.15500
H2476       H  0.70483176  0.69221336  0.85609205     0.15500
H2477       H  0.79307909  0.80990636  0.64274622     0.15500
H2478       H  0.84201881  0.85939952  0.68073346     0.15500
H2479       H  0.63706398  0.63431827  0.69821831     0.13800
H2480       H  0.68039438  0.67176685  0.65217392     0.13800
H2481       H  0.82091684  0.82817665  0.84631407     0.13800
H2482       H  0.86399169  0.86575757  0.80019153     0.13800
H2483       H  0.72563681  0.74132621  0.76774133     0.27100
H2484       H  0.77528347  0.75940500  0.73036835     0.27100
C2485       C  0.75664143  0.76548995  0.86056591    -0.12300
C2486       C  0.75558234  0.76679334  0.88812177    -0.13900
C2487       C  0.74443171  0.73477466  0.61011530    -0.12300
C2488       C  0.74343133  0.73579338  0.63772543    -0.13900
C2489       C  0.73656547  0.49683562  0.88790678    -0.12300
C2490       C  0.73602742  0.49586408  0.86029053    -0.13900
C2491       C  0.76306274  0.50366698  0.63795836    -0.12300
C2492       C  0.76346395  0.50478857  0.61034041    -0.13900
C2493       C  0.50027441  0.73877978  0.86114995    -0.12300
C2494       C  0.50063048  0.73905316  0.88876810    -0.13900
C2495       C  0.50042736  0.76227434  0.63876571    -0.12300
C2496       C  0.50064744  0.76275853  0.61114844    -0.13900
loop_ 
_geom_bond_atom_site_label_1 
_geom_bond_atom_site_label_2 
_geom_bond_distance 
_geom_bond_site_symmetry_2 
_ccdc_geom_bond_type 
N1            C6   1.353   1_455  A
N1         C1253   1.352   1_455  A
N1           H33   1.038       .  S
N2            C9   1.354       .  A
N2           C10   1.353       .  A
N3            C8   1.352   1_455  A
N3         C1255   1.353   1_455  A
N3           H34   1.038       .  S
N4           C11   1.353       .  A
N4           C12   1.354       .  A
C5         N1249   1.352       .  A
C5           C13   1.388       .  A
C5           C21   1.414       .  A
C6           C22   1.412   1_655  A
C6           C14   1.386       .  A
C7         N1251   1.353       .  A
C7           C15   1.385       .  A
C7          C336   1.410       .  A
C8           C23   1.415   1_655  A
C8           C16   1.389       .  A
C9           C21   1.414       .  A
C9           C17   1.386       .  A
C10          C24   1.418   1_554  A
C10          C18   1.388       .  A
C11          C19   1.390       .  A
C11         C334   1.420       .  A
C12          C20   1.385       .  A
C12          C23   1.413       .  A
C13        C1262   1.375       .  A
C13          H25   1.082       .  S
C14        C1261   1.375       .  A
C14          H26   1.082       .  S
C15        C1264   1.375       .  A
C15          H27   1.082       .  S
C16        C1263   1.375       .  A
C16          H28   1.082       .  S
C17          C18   1.374       .  A
C17          H29   1.083       .  S
C18          H30   1.083       .  S
C19          C20   1.372       .  A
C19          H31   1.082       .  S
C20          H32   1.083       .  S
C21        C1560   1.452       .  S
C22         C323   1.420   1_554  A
C22        C1326   1.479   1_455  S
C23         C310   1.452       .  S
C24         C319   1.410       .  A
C24         C422   1.479       .  S
N35          C40   1.353   1_655  A
N35          C39   1.352   1_655  A
N35          H67   1.037       .  S
N36          C43   1.354       .  A
N36          C44   1.353       .  A
N37          C42   1.352   1_655  A
N37          C41   1.354   1_655  A
N37          H68   1.038       .  S
N38          C45   1.352       .  A
N38          C46   1.354       .  A
C39          C47   1.389       .  A
C39          C55   1.415   1_455  A
C40          C56   1.410   1_455  A
C40          C48   1.385       .  A
C41          C49   1.386       .  A
C41          C58   1.413   1_455  A
C42          C57   1.414   1_455  A
C42          C50   1.388       .  A
C43          C55   1.413       .  A
C43          C51   1.385       .  A
C44          C58   1.420       .  A
C44          C52   1.390       .  A
C45          C53   1.389       .  A
C45          C56   1.418       .  A
C46          C54   1.386       .  A
C46          C57   1.413       .  A
C47          C48   1.376       .  A
C47          H59   1.081       .  S
C48          H60   1.083       .  S
C49          C50   1.375       .  A
C49          H61   1.082       .  S
C50          H62   1.082       .  S
C51          C52   1.372       .  A
C51          H63   1.083       .  S
C52          H64   1.082       .  S
C53          C54   1.373       .  A
C53          H65   1.083       .  S
C54          H66   1.083       .  S
C55         C311   1.453   1_655  S
C56        C1406   1.476       .  S
C57         C309   1.452   1_655  S
C58        C1374   1.479   1_655  S
O69         C104   1.234       .  S
O69       Mg1319   2.150   1_455  S
O69        Mg389   2.158   1_554  S
C70         H109   1.081       .  S
C70          O83   1.235       .  S
C70         O107   1.270       .  A
Mg71       O1317   2.150       .  S
Mg71        O412   2.169   1_554  S
Mg71        O111   2.259       .  S
Mg71         O82   2.299       .  S
Mg71        O427   2.298   1_554  S
O72          C93   1.234       .  S
O72         Mg97   2.147       .  S
O72        Mg426   2.156   1_554  S
O73         C728   1.269       .  A
O73         Mg97   2.301   1_565  S
C74         C497   1.477       .  S
C74          O88   1.272   1_565  A
C74         O700   1.271       .  A
O75        C1351   1.269       .  A
O75         Mg77   2.301   1_655  S
O76         C698   1.271       .  A
O76        Mg108   2.268       .  S
Mg77        O381   2.158       .  S
Mg77        O707   2.156       .  S
Mg77         O91   2.262       .  S
Mg77        O391   2.292       .  S
C78        C1270   1.479       .  S
C78         O116   1.270       .  A
C78        O1332   1.271       .  A
O79         C710   1.272       .  A
O79        Mg389   2.292   1_554  S
H80          C93   1.081       .  S
C81         H106   1.081       .  S
C81          O95   1.234       .  S
C81         O720   1.268       .  A
O82         C105   1.268       .  A
O83        Mg701   2.156   1_545  S
O83        Mg409   2.157       .  S
O84        C1326   1.271   1_455  A
O84        Mg426   2.289   1_554  S
C85         C253   1.475       .  S
C85          O98   1.268       .  A
C85          O90   1.271       .  A
C86         C187   1.478       .  S
C86         O113   1.269       .  A
C86         O703   1.272   1_545  A
Mg87        O718   2.155   1_545  S
Mg87        O407   2.159   1_554  S
Mg87         O89   2.304       .  S
Mg87        O116   2.267       .  S
Mg87        O400   2.290   1_554  S
O88        Mg399   2.290       .  S
O89        C1341   1.269       .  A
O90        Mg409   2.285       .  S
O91        C1358   1.270       .  A
O92         C112   1.273       .  A
O92        Mg420   2.288   1_554  S
C93        O1337   1.269       .  A
O94         C105   1.233       .  S
O94        Mg711   2.155       .  S
O94        Mg420   2.168   1_554  S
O95        Mg399   2.159       .  S
O95       Mg1362   2.149       .  S
O96         C705   1.268       .  A
O96        Mg108   2.299       .  S
Mg97        O395   2.157   1_554  S
Mg97        O113   2.257       .  S
Mg97        O402   2.285   1_554  S
O98        Mg114   2.249       .  S
H99         C104   1.081       .  S
O100        C103   1.235       .  S
O100       Mg108   2.155       .  S
O100       Mg383   2.169       .  S
H101        C103   1.081       .  S
H102        C105   1.081       .  S
C103       O1323   1.269       .  A
C104        O697   1.269       .  A
O107       Mg114   2.306       .  S
Mg108       O406   2.168       .  S
Mg108       O404   2.288       .  S
C110        C336   1.479       .  S
C110        O115   1.273       .  A
C110       O1339   1.270       .  A
O111        C112   1.270       .  A
C112        C567   1.478       .  S
Mg114       O384   2.156       .  S
Mg114      O1343   2.149   1_455  S
Mg114       O396   2.289       .  S
O115       Mg383   2.298       .  S
O117        C152   1.234       .  S
O117       Mg125   2.162       .  S
O117      Mg1367   2.150       .  S
C118        H157   1.081       .  S
C118        O131   1.234       .  S
C118        O155   1.270       .  A
Mg119       O148   2.165       .  S
Mg119      O1365   2.150   1_455  S
Mg119       O163   2.294       .  S
Mg119       O159   2.259       .  S
Mg119       O130   2.301       .  S
O120        C141   1.234       .  S
O120       Mg162   2.158       .  S
O120       Mg145   2.155       .  S
O121        C776   1.269       .  A
O121       Mg145   2.302       .  S
C122        C222   1.476       .  S
C122        O124   1.270       .  A
C122        O760   1.272   1_545  A
O123       C1399   1.269       .  A
O123       Mg125   2.301       .  S
O124       Mg156   2.261       .  S
Mg125       O755   2.151   1_545  S
Mg125       O139   2.256       .  S
Mg125       O127   2.295       .  S
C126       C1306   1.479       .  S
C126        O132   1.273       .  A
C126       O1412   1.270       .  A
O127        C134   1.272   1_545  A
H128        C141   1.081       .  S
C129        H154   1.081       .  S
C129        O143   1.234       .  S
C129        O768   1.269       .  A
O130        C153   1.268       .  A
O131       Mg145   2.157       .  S
O131       Mg749   2.151       .  S
O132       Mg162   2.296       .  S
C133        C289   1.475       .  S
C133        O146   1.269       .  A
C133        O138   1.271       .  A
C134        C220   1.480       .  S
C134        O785   1.270       .  A
Mg135       O143   2.159       .  S
Mg135       O766   2.155       .  S
Mg135       O136   2.291       .  S
Mg135       O137   2.305   1_455  S
Mg135       O164   2.264       .  S
O136        C746   1.272       .  A
O137       C1389   1.269       .  A
O138       Mg145   2.288       .  S
O139        C158   1.269       .  A
O140        C160   1.272       .  A
O140       Mg156   2.291       .  S
C141       O1385   1.269       .  A
O142        C153   1.233       .  S
O142       Mg156   2.165       .  S
O142       Mg759   2.155   1_545  S
O143      Mg1410   2.150   1_455  S
O144        C753   1.269       .  A
O144       Mg156   2.301   1_565  S
Mg145       O161   2.259       .  S
O146       Mg162   2.253       .  S
H147        C152   1.081       .  S
O148        C151   1.234       .  S
O148       Mg156   2.154       .  S
H149        C151   1.081       .  S
H150        C153   1.081       .  S
C151       O1371   1.269       .  A
C152        O745   1.269       .  A
O155       Mg162   2.303       .  S
C158       C1304   1.476       .  S
C158       O1411   1.272       .  A
O159        C160   1.270       .  A
C160        C287   1.478       .  S
O161        C758   1.270       .  A
Mg162      O1391   2.150       .  S
O163       C1406   1.272   1_455  A
O164       C1374   1.270       .  A
N165        C170   1.355   1_545  A
N165        C169   1.354   1_545  A
N165        H197   1.037       .  S
N166        C173   1.351   1_565  A
N166        C174   1.350   1_565  A
N167        C172   1.354   1_545  A
N167        C171   1.355   1_545  A
N167        H198   1.036       .  S
N168        C175   1.351       .  A
N168        C176   1.351       .  A
C169        C177   1.389       .  A
C169        C185   1.420   1_554  A
C170        C186   1.416   1_565  A
C170        C178   1.387       .  A
C171        C179   1.385       .  A
C171        C188   1.415       .  A
C172        C180   1.391       .  A
C172        C499   1.423   1_565  A
C173        C181   1.384       .  A
C173        C497   1.407   1_545  A
C174        C188   1.412   1_545  A
C174        C182   1.387       .  A
C175        C183   1.387       .  A
C175        C186   1.413       .  A
C176        C184   1.386       .  A
C176        C187   1.411       .  A
C177        C178   1.376       .  A
C177        H189   1.083       .  S
C178        H190   1.083       .  S
C179        C180   1.376       .  A
C179        H191   1.083       .  S
C180        H192   1.082       .  S
C181        C182   1.373       .  A
C181        H193   1.082       .  S
C182        H194   1.081       .  S
C183        C184   1.373       .  A
C183        H195   1.081       .  S
C184        H196   1.082       .  S
C185        C485   1.407   1_565  A
C185        C386   1.477       .  S
C186        C308   1.453       .  S
C187        C484   1.423   1_544  A
C188        C305   1.453       .  S
N199        C204   1.355       .  A
N199        C203   1.355       .  A
N199        H231   1.037   1_545  S
N200        C207   1.350   1_545  A
N200        C208   1.351   1_545  A
N201        C206   1.355   1_565  A
N201        C205   1.354   1_565  A
N201        H232   1.038       .  S
N202        C209   1.351       .  A
N202        C210   1.351       .  A
C203        C211   1.385       .  A
C203        C219   1.416       .  A
C204        C220   1.423   1_545  A
C204        C212   1.391       .  A
C205        C213   1.389       .  A
C205        C222   1.419       .  A
C206        C221   1.415   1_545  A
C206        C214   1.387       .  A
C207        C219   1.412   1_565  A
C207        C215   1.388       .  A
C208        C222   1.407   1_565  A
C208        C216   1.384       .  A
C209        C217   1.386       .  A
C209        C220   1.411       .  A
C210        C218   1.387       .  A
C210        C221   1.412       .  A
C211        C212   1.376       .  A
C211        H223   1.083       .  S
C212        H224   1.081       .  S
C213        C214   1.377       .  A
C213        H225   1.083       .  S
C214        H226   1.083       .  S
C215        C216   1.373       .  A
C215        H227   1.081       .  S
C216        H228   1.082       .  S
C217        C218   1.373       .  A
C217        H229   1.082       .  S
C218        H230   1.081       .  S
C219        C307   1.453       .  S
C221        C306   1.453       .  S
N233        C238   1.358       .  A
N233        C237   1.355       .  A
N233        H265   1.036       .  S
N234        C241   1.349       .  A
N234        C242   1.349       .  A
N235        C240   1.356       .  A
N235        C239   1.358       .  A
N235        H266   1.037       .  S
N236        C243   1.350       .  A
N236        C244   1.350       .  A
C237        C245   1.390       .  A
C237        C565   1.423   1_554  A
C238        C254   1.418       .  A
C238        C246   1.386       .  A
C239        C247   1.386       .  A
C239        C256   1.417       .  A
C240        C255   1.423       .  A
C240        C248   1.390       .  A
C241        C253   1.409       .  A
C241        C249   1.386       .  A
C242        C256   1.411       .  A
C242        C250   1.386       .  A
C243        C251   1.386       .  A
C243        C254   1.413       .  A
C244        C252   1.385       .  A
C244        C567   1.410       .  A
C245        C246   1.372       .  A
C245        H257   1.083       .  S
C246        H258   1.082       .  S
C247        C248   1.372       .  A
C247        H259   1.082       .  S
C248        H260   1.083       .  S
C249        C250   1.370       .  A
C249        H261   1.082       .  S
C250        H262   1.080       .  S
C251        C252   1.370       .  A
C251        H263   1.079       .  S
C252        H264   1.082       .  S
C253        C549   1.423       .  A
C254        C303   1.456       .  S
C255        C556   1.410       .  A
C255        C424   1.478       .  S
C256        C302   1.453       .  S
N267        C272   1.354       .  A
N267        C271   1.354       .  A
N267        H299   1.038       .  S
N268        C275   1.352       .  A
N268        C276   1.354       .  A
N269        C274   1.354       .  A
N269        C273   1.354       .  A
N269        H300   1.039       .  S
N270        C277   1.353       .  A
N270        C278   1.351       .  A
C271        C279   1.385       .  A
C271        C287   1.410       .  A
C272        C288   1.415       .  A
C272        C280   1.387       .  A
C273        C281   1.388       .  A
C273        C290   1.415       .  A
C274        C289   1.409       .  A
C274        C282   1.384       .  A
C275        C287   1.419       .  A
C275        C283   1.389       .  A
C276        C290   1.413       .  A
C276        C284   1.385       .  A
C277        C285   1.385       .  A
C277        C288   1.412       .  A
C278        C286   1.389       .  A
C278        C289   1.416       .  A
C279        C280   1.371       .  A
C279        H291   1.083       .  S
C280        H292   1.079       .  S
C281        C282   1.372       .  A
C281        H293   1.079       .  S
C282        H294   1.083       .  S
C283        C284   1.371       .  A
C283        H295   1.082       .  S
C284        H296   1.082       .  S
C285        C286   1.370       .  A
C285        H297   1.082       .  S
C286        H298   1.083       .  S
C288        C301   1.453       .  S
C290        C304   1.456       .  S
C301        C302   1.208       .  T
C303        C304   1.210       .  T
C305        C306   1.208       .  T
C307        C308   1.209       .  T
C309        C310   1.208       .  T
C311        C312   1.208       .  T
C312       C1269   1.452       .  S
N313        C318   1.353   1_455  A
N313       C1565   1.352   1_455  A
N313        H345   1.038       .  S
N314        C321   1.354       .  A
N314        C322   1.353       .  A
N315        C320   1.352   1_455  A
N315       C1567   1.353   1_455  A
N315        H346   1.038       .  S
N316        C323   1.353       .  A
N316        C324   1.354       .  A
C317       N1561   1.352       .  A
C317        C325   1.388       .  A
C317        C333   1.414       .  A
C318        C334   1.412   1_655  A
C318        C326   1.386       .  A
C319       N1563   1.353       .  A
C319        C327   1.385       .  A
C320        C335   1.415   1_655  A
C320        C328   1.389       .  A
C321        C333   1.414       .  A
C321        C329   1.386       .  A
C322        C336   1.418       .  A
C322        C330   1.388       .  A
C323        C331   1.390       .  A
C324        C332   1.385       .  A
C324        C335   1.413       .  A
C325       C1574   1.375       .  A
C325        H337   1.082       .  S
C326       C1573   1.375       .  A
C326        H338   1.082       .  S
C327       C1576   1.375       .  A
C327        H339   1.082       .  S
C328       C1575   1.375       .  A
C328        H340   1.082       .  S
C329        C330   1.374       .  A
C329        H341   1.083       .  S
C330        H342   1.083       .  S
C331        C332   1.372       .  A
C331        H343   1.082       .  S
C332        H344   1.083       .  S
C333       C1872   1.452       .  S
C334       C1638   1.479   1_455  S
C335        C622   1.452       .  S
N347        C352   1.353   1_655  A
N347        C351   1.352   1_655  A
N347        H379   1.037       .  S
N348        C355   1.354       .  A
N348        C356   1.353       .  A
N349        C354   1.352   1_655  A
N349        C353   1.354   1_655  A
N349        H380   1.038       .  S
N350        C357   1.352       .  A
N350        C358   1.354       .  A
C351        C359   1.389       .  A
C351        C367   1.415   1_455  A
C352        C368   1.410   1_455  A
C352        C360   1.385       .  A
C353        C361   1.386       .  A
C353        C370   1.413   1_455  A
C354        C369   1.414   1_455  A
C354        C362   1.388       .  A
C355        C367   1.413       .  A
C355        C363   1.385       .  A
C356        C370   1.420       .  A
C356        C364   1.390       .  A
C357        C365   1.389       .  A
C357        C368   1.418       .  A
C358        C366   1.386       .  A
C358        C369   1.413       .  A
C359        C360   1.376       .  A
C359        H371   1.081       .  S
C360        H372   1.083       .  S
C361        C362   1.375       .  A
C361        H373   1.082       .  S
C362        H374   1.082       .  S
C363        C364   1.372       .  A
C363        H375   1.083       .  S
C364        H376   1.082       .  S
C365        C366   1.373       .  A
C365        H377   1.083       .  S
C366        H378   1.083       .  S
C367        C623   1.453   1_655  S
C368       C1718   1.476       .  S
C369        C621   1.452   1_655  S
C370       C1686   1.479   1_655  S
O381        C416   1.234       .  S
O381      Mg1631   2.150   1_455  S
C382        H421   1.081       .  S
C382        O395   1.235       .  S
C382        O419   1.270       .  A
Mg383      O1629   2.150       .  S
Mg383       O423   2.259       .  S
Mg383       O394   2.299       .  S
O384        C405   1.234       .  S
O384       Mg409   2.147       .  S
O385       C1040   1.269       .  A
O385       Mg409   2.301   1_565  S
C386       O1012   1.271       .  A
C386        O400   1.272   1_565  A
O387       C1663   1.269       .  A
O387       Mg389   2.301   1_655  S
O388       C1010   1.271       .  A
O388       Mg420   2.268       .  S
Mg389      O1019   2.156       .  S
Mg389       O403   2.262       .  S
C390       C1582   1.479       .  S
C390        O428   1.270       .  A
C390       O1644   1.271       .  A
O391       C1022   1.272       .  A
H392        C405   1.081       .  S
C393        H418   1.081       .  S
C393        O407   1.234       .  S
C393       O1032   1.268       .  A
O394        C417   1.268       .  A
O395      Mg1013   2.156   1_545  S
O396       C1638   1.271   1_455  A
C397        C565   1.475       .  S
C397        O410   1.268       .  A
C397        O402   1.271       .  A
C398        C499   1.478       .  S
C398       O1015   1.272   1_545  A
C398        O425   1.269       .  A
Mg399      O1030   2.155   1_545  S
Mg399       O401   2.304       .  S
Mg399       O428   2.267       .  S
O401       C1653   1.269       .  A
O403       C1670   1.270       .  A
O404        C424   1.273       .  A
C405       O1649   1.269       .  A
O406        C417   1.233       .  S
O406      Mg1023   2.155       .  S
O407      Mg1674   2.149       .  S
O408       C1017   1.268       .  A
O408       Mg420   2.299       .  S
Mg409       O425   2.257       .  S
O410       Mg426   2.249       .  S
H411        C416   1.081       .  S
O412        C415   1.235       .  S
O412       Mg420   2.155       .  S
H413        C415   1.081       .  S
H414        C417   1.081       .  S
C415       O1635   1.269       .  A
C416       O1009   1.269       .  A
O419       Mg426   2.306       .  S
C422       O1651   1.270       .  A
C422        O427   1.273       .  A
O423        C424   1.270       .  A
Mg426      O1655   2.149   1_455  S
O429        C464   1.234       .  S
O429      Mg1679   2.150       .  S
O429       Mg437   2.162       .  S
C430        H469   1.081       .  S
C430        O443   1.234       .  S
C430        O467   1.270       .  A
Mg431      O1677   2.150   1_455  S
Mg431       O460   2.165       .  S
Mg431       O475   2.294       .  S
Mg431       O471   2.259       .  S
Mg431       O442   2.301       .  S
O432        C453   1.234       .  S
O432       Mg474   2.158       .  S
O432       Mg457   2.155       .  S
O433       C1088   1.269       .  A
O433       Mg457   2.302       .  S
C434        C534   1.476       .  S
C434        O436   1.270       .  A
C434       O1072   1.272   1_545  A
O435       C1711   1.269       .  A
O435       Mg437   2.301       .  S
O436       Mg468   2.261       .  S
Mg437      O1067   2.151   1_545  S
Mg437       O451   2.256       .  S
Mg437       O439   2.295       .  S
C438       C1618   1.479       .  S
C438       O1724   1.270       .  A
C438        O444   1.273       .  A
O439        C446   1.272   1_545  A
H440        C453   1.081       .  S
C441        H466   1.081       .  S
C441        O455   1.234       .  S
C441       O1080   1.269       .  A
O442        C465   1.268       .  A
O443      Mg1061   2.151       .  S
O443       Mg457   2.157       .  S
O444       Mg474   2.296       .  S
C445        C601   1.475       .  S
C445        O458   1.269       .  A
C445        O450   1.271       .  A
C446        C532   1.480       .  S
C446       O1097   1.270       .  A
Mg447      O1078   2.155       .  S
Mg447       O455   2.159       .  S
Mg447       O448   2.291       .  S
Mg447       O449   2.305   1_455  S
Mg447       O476   2.264       .  S
O448       C1058   1.272       .  A
O449       C1701   1.269       .  A
O450       Mg457   2.288       .  S
O451        C470   1.269       .  A
O452        C472   1.272       .  A
O452       Mg468   2.291       .  S
C453       O1697   1.269       .  A
O454        C465   1.233       .  S
O454      Mg1071   2.155   1_545  S
O454       Mg468   2.165       .  S
O455      Mg1722   2.150   1_455  S
O456       C1065   1.269       .  A
O456       Mg468   2.301   1_565  S
Mg457       O473   2.259       .  S
O458       Mg474   2.253       .  S
H459        C464   1.081       .  S
O460        C463   1.234       .  S
O460       Mg468   2.154       .  S
H461        C463   1.081       .  S
H462        C465   1.081       .  S
C463       O1683   1.269       .  A
C464       O1057   1.269       .  A
O467       Mg474   2.303       .  S
C470       C1616   1.476       .  S
C470       O1723   1.272       .  A
O471        C472   1.270       .  A
C472        C599   1.478       .  S
O473       C1070   1.270       .  A
Mg474      O1703   2.150       .  S
O475       C1718   1.272   1_455  A
O476       C1686   1.270       .  A
N477        C482   1.355   1_545  A
N477        C481   1.354   1_545  A
N477        H509   1.037       .  S
N478        C485   1.351   1_565  A
N478        C486   1.350   1_565  A
N479        C484   1.354   1_545  A
N479        C483   1.355   1_545  A
N479        H510   1.036       .  S
N480        C487   1.351       .  A
N480        C488   1.351       .  A
C481        C489   1.389       .  A
C481        C497   1.420       .  A
C482        C498   1.416   1_565  A
C482        C490   1.387       .  A
C483        C491   1.385       .  A
C483        C500   1.415       .  A
C484        C492   1.391       .  A
C485        C493   1.384       .  A
C486        C500   1.412   1_545  A
C486        C494   1.387       .  A
C487        C495   1.387       .  A
C487        C498   1.413       .  A
C488        C496   1.386       .  A
C488        C499   1.411       .  A
C489        C490   1.376       .  A
C489        H501   1.083       .  S
C490        H502   1.083       .  S
C491        C492   1.376       .  A
C491        H503   1.083       .  S
C492        H504   1.082       .  S
C493        C494   1.373       .  A
C493        H505   1.082       .  S
C494        H506   1.081       .  S
C495        C496   1.373       .  A
C495        H507   1.081       .  S
C496        H508   1.082       .  S
C498        C620   1.453       .  S
C500        C617   1.453       .  S
N511        C516   1.355       .  A
N511        C515   1.355       .  A
N511        H543   1.037   1_545  S
N512        C519   1.350   1_545  A
N512        C520   1.351   1_545  A
N513        C518   1.355   1_565  A
N513        C517   1.354   1_565  A
N513        H544   1.038       .  S
N514        C521   1.351       .  A
N514        C522   1.351       .  A
C515        C523   1.385       .  A
C515        C531   1.416       .  A
C516        C532   1.423   1_545  A
C516        C524   1.391       .  A
C517        C525   1.389       .  A
C517        C534   1.419       .  A
C518        C533   1.415   1_545  A
C518        C526   1.387       .  A
C519        C531   1.412   1_565  A
C519        C527   1.388       .  A
C520        C534   1.407   1_565  A
C520        C528   1.384       .  A
C521        C529   1.386       .  A
C521        C532   1.411       .  A
C522        C530   1.387       .  A
C522        C533   1.412       .  A
C523        C524   1.376       .  A
C523        H535   1.083       .  S
C524        H536   1.081       .  S
C525        C526   1.377       .  A
C525        H537   1.083       .  S
C526        H538   1.083       .  S
C527        C528   1.373       .  A
C527        H539   1.081       .  S
C528        H540   1.082       .  S
C529        C530   1.373       .  A
C529        H541   1.082       .  S
C530        H542   1.081       .  S
C531        C619   1.453       .  S
C533        C618   1.453       .  S
N545        C550   1.358       .  A
N545        C549   1.355       .  A
N545        H577   1.036       .  S
N546        C553   1.349       .  A
N546        C554   1.349       .  A
N547        C552   1.356       .  A
N547        C551   1.358       .  A
N547        H578   1.037       .  S
N548        C555   1.350       .  A
N548        C556   1.350       .  A
C549        C557   1.390       .  A
C550        C566   1.418       .  A
C550        C558   1.386       .  A
C551        C559   1.386       .  A
C551        C568   1.417       .  A
C552        C567   1.423   1_556  A
C552        C560   1.390       .  A
C553        C565   1.409       .  A
C553        C561   1.386       .  A
C554        C568   1.411       .  A
C554        C562   1.386       .  A
C555        C563   1.386       .  A
C555        C566   1.413       .  A
C556        C564   1.385       .  A
C557        C558   1.372       .  A
C557        H569   1.083       .  S
C558        H570   1.082       .  S
C559        C560   1.372       .  A
C559        H571   1.082       .  S
C560        H572   1.083       .  S
C561        C562   1.370       .  A
C561        H573   1.082       .  S
C562        H574   1.080       .  S
C563        C564   1.370       .  A
C563        H575   1.079       .  S
C564        H576   1.082       .  S
C566        C615   1.456       .  S
C568        C614   1.453       .  S
N579        C584   1.354       .  A
N579        C583   1.354       .  A
N579        H611   1.038       .  S
N580        C587   1.352       .  A
N580        C588   1.354       .  A
N581        C586   1.354       .  A
N581        C585   1.354       .  A
N581        H612   1.039       .  S
N582        C589   1.353       .  A
N582        C590   1.351       .  A
C583        C591   1.385       .  A
C583        C599   1.410       .  A
C584        C600   1.415       .  A
C584        C592   1.387       .  A
C585        C593   1.388       .  A
C585        C602   1.415       .  A
C586        C601   1.409       .  A
C586        C594   1.384       .  A
C587        C599   1.419       .  A
C587        C595   1.389       .  A
C588        C602   1.413       .  A
C588        C596   1.385       .  A
C589        C597   1.385       .  A
C589        C600   1.412       .  A
C590        C598   1.389       .  A
C590        C601   1.416       .  A
C591        C592   1.371       .  A
C591        H603   1.083       .  S
C592        H604   1.079       .  S
C593        C594   1.372       .  A
C593        H605   1.079       .  S
C594        H606   1.083       .  S
C595        C596   1.371       .  A
C595        H607   1.082       .  S
C596        H608   1.082       .  S
C597        C598   1.370       .  A
C597        H609   1.082       .  S
C598        H610   1.083       .  S
C600        C613   1.453       .  S
C602        C616   1.456       .  S
C613        C614   1.208       .  T
C615        C616   1.210       .  T
C617        C618   1.208       .  T
C619        C620   1.209       .  T
C621        C622   1.208       .  T
C623        C624   1.208       .  T
C624       C1581   1.452       .  S
N625        C630   1.353   1_455  A
N625       C1877   1.352   1_455  A
N625        H657   1.038       .  S
N626        C633   1.354       .  A
N626        C634   1.353       .  A
N627        C632   1.352   1_455  A
N627       C1879   1.353   1_455  A
N627        H658   1.038       .  S
N628        C635   1.353       .  A
N628        C636   1.354       .  A
C629       N1873   1.352       .  A
C629        C637   1.388       .  A
C629        C645   1.414       .  A
C630        C646   1.412   1_655  A
C630        C638   1.386       .  A
C631       N1875   1.353       .  A
C631        C639   1.385       .  A
C631        C960   1.410       .  A
C632        C647   1.415   1_655  A
C632        C640   1.389       .  A
C633        C645   1.414       .  A
C633        C641   1.386       .  A
C634        C648   1.418   1_554  A
C634        C642   1.388       .  A
C635        C643   1.390       .  A
C635        C958   1.420       .  A
C636        C644   1.385       .  A
C636        C647   1.413       .  A
C637       C1886   1.375       .  A
C637        H649   1.082       .  S
C638       C1885   1.375       .  A
C638        H650   1.082       .  S
C639       C1888   1.375       .  A
C639        H651   1.082       .  S
C640       C1887   1.375       .  A
C640        H652   1.082       .  S
C641        C642   1.374       .  A
C641        H653   1.083       .  S
C642        H654   1.083       .  S
C643        C644   1.372       .  A
C643        H655   1.082       .  S
C644        H656   1.083       .  S
C645       C2184   1.452       .  S
C646        C947   1.420   1_554  A
C646       C1950   1.479   1_455  S
C647        C934   1.452       .  S
C648        C943   1.410       .  A
C648       C1046   1.479       .  S
N659        C664   1.353   1_655  A
N659        C663   1.352   1_655  A
N659        H691   1.037       .  S
N660        C667   1.354       .  A
N660        C668   1.353       .  A
N661        C666   1.352   1_655  A
N661        C665   1.354   1_655  A
N661        H692   1.038       .  S
N662        C669   1.352       .  A
N662        C670   1.354       .  A
C663        C671   1.389       .  A
C663        C679   1.415   1_455  A
C664        C680   1.410   1_455  A
C664        C672   1.385       .  A
C665        C673   1.386       .  A
C665        C682   1.413   1_455  A
C666        C681   1.414   1_455  A
C666        C674   1.388       .  A
C667        C679   1.413       .  A
C667        C675   1.385       .  A
C668        C682   1.420       .  A
C668        C676   1.390       .  A
C669        C677   1.389       .  A
C669        C680   1.418       .  A
C670        C678   1.386       .  A
C670        C681   1.413       .  A
C671        C672   1.376       .  A
C671        H683   1.081       .  S
C672        H684   1.083       .  S
C673        C674   1.375       .  A
C673        H685   1.082       .  S
C674        H686   1.082       .  S
C675        C676   1.372       .  A
C675        H687   1.083       .  S
C676        H688   1.082       .  S
C677        C678   1.373       .  A
C677        H689   1.083       .  S
C678        H690   1.083       .  S
C679        C935   1.453   1_655  S
C680       C2030   1.476       .  S
C681        C933   1.452   1_655  S
C682       C1998   1.479   1_655  S
O693        C728   1.234       .  S
O693      Mg1943   2.150   1_455  S
O693      Mg1013   2.158   1_554  S
C694        H733   1.081       .  S
C694        O707   1.235       .  S
C694        O731   1.270       .  A
Mg695      O1941   2.150       .  S
Mg695      O1036   2.169   1_554  S
Mg695      O1051   2.298   1_554  S
Mg695       O735   2.259       .  S
Mg695       O706   2.299       .  S
O696        C717   1.234       .  S
O696      Mg1050   2.156   1_554  S
O696       Mg721   2.147       .  S
O697       Mg721   2.301       .  S
C698       C1121   1.477       .  S
C698        O712   1.272       .  A
O699       C1975   1.269       .  A
O699       Mg701   2.301   1_655  S
O700       Mg732   2.268       .  S
Mg701      O1005   2.158       .  S
Mg701       O715   2.262       .  S
Mg701      O1015   2.292       .  S
C702       C1894   1.479       .  S
C702        O740   1.270       .  A
C702       O1956   1.271       .  A
O703      Mg1013   2.292   1_554  S
H704        C717   1.081       .  S
C705        H730   1.081       .  S
C705        O719   1.234       .  S
O706        C729   1.268       .  A
O707      Mg1033   2.157       .  S
O708       C1950   1.271   1_455  A
O708      Mg1050   2.289   1_554  S
C709        C877   1.475       .  S
C709        O722   1.268       .  A
C709        O714   1.271       .  A
C710        C811   1.478       .  S
C710        O737   1.269       .  A
Mg711      O1031   2.159   1_554  S
Mg711      O1024   2.290   1_554  S
Mg711       O713   2.304       .  S
Mg711       O740   2.267       .  S
O712      Mg1023   2.290       .  S
O713       C1965   1.269       .  A
O714      Mg1033   2.285       .  S
O715       C1982   1.270       .  A
O716        C736   1.273       .  A
O716      Mg1044   2.288   1_554  S
C717       O1961   1.269       .  A
O718        C729   1.233       .  S
O718      Mg1044   2.168   1_554  S
O719      Mg1023   2.159       .  S
O719      Mg1986   2.149       .  S
O720       Mg732   2.299   1_545  S
Mg721      O1019   2.157   1_554  S
Mg721      O1026   2.285   1_554  S
Mg721       O737   2.257       .  S
O722       Mg738   2.249       .  S
H723        C728   1.081       .  S
O724        C727   1.235       .  S
O724      Mg1007   2.169       .  S
O724       Mg732   2.155       .  S
H725        C727   1.081       .  S
H726        C729   1.081       .  S
C727       O1947   1.269       .  A
O731       Mg738   2.306       .  S
Mg732      O1030   2.168       .  S
Mg732      O1028   2.288       .  S
C734        C960   1.479       .  S
C734       O1963   1.270       .  A
C734        O739   1.273       .  A
O735        C736   1.270       .  A
C736       C1191   1.478       .  S
Mg738      O1008   2.156       .  S
Mg738      O1967   2.149   1_455  S
Mg738      O1020   2.289       .  S
O739      Mg1007   2.298       .  S
O741        C776   1.234       .  S
O741      Mg1991   2.150       .  S
O741       Mg749   2.162       .  S
C742        H781   1.081       .  S
C742        O755   1.234       .  S
C742        O779   1.270       .  A
Mg743      O1989   2.150   1_455  S
Mg743       O772   2.165       .  S
Mg743       O787   2.294       .  S
Mg743       O783   2.259       .  S
Mg743       O754   2.301       .  S
O744        C765   1.234       .  S
O744       Mg786   2.158       .  S
O744       Mg769   2.155       .  S
O745       Mg769   2.302   1_545  S
C746        C846   1.476       .  S
C746        O748   1.270       .  A
O747       C2023   1.269       .  A
O747       Mg749   2.301       .  S
O748       Mg780   2.261       .  S
Mg749       O763   2.256       .  S
Mg749       O751   2.295       .  S
C750       C1930   1.479       .  S
C750       O2036   1.270       .  A
C750        O756   1.273       .  A
O751        C758   1.272       .  A
H752        C765   1.081       .  S
C753        H778   1.081       .  S
C753        O767   1.234       .  S
O754        C777   1.268       .  A
O755       Mg769   2.157       .  S
O756       Mg786   2.296       .  S
C757        C913   1.475       .  S
C757        O770   1.269       .  A
C757        O762   1.271       .  A
C758        C844   1.480       .  S
Mg759       O767   2.159       .  S
Mg759       O760   2.291       .  S
Mg759       O761   2.305   1_455  S
Mg759       O788   2.264       .  S
O761       C2013   1.269       .  A
O762       Mg769   2.288       .  S
O763        C782   1.269       .  A
O764        C784   1.272       .  A
O764       Mg780   2.291       .  S
C765       O2009   1.269       .  A
O766        C777   1.233       .  S
O766       Mg780   2.165       .  S
O767      Mg2034   2.150   1_455  S
O768       Mg780   2.301       .  S
Mg769       O785   2.259       .  S
O770       Mg786   2.253       .  S
H771        C776   1.081       .  S
O772        C775   1.234       .  S
O772       Mg780   2.154       .  S
H773        C775   1.081       .  S
H774        C777   1.081       .  S
C775       O1995   1.269       .  A
O779       Mg786   2.303       .  S
C782       C1928   1.476       .  S
C782       O2035   1.272       .  A
O783        C784   1.270       .  A
C784        C911   1.478       .  S
Mg786      O2015   2.150       .  S
O787       C2030   1.272   1_455  A
O788       C1998   1.270       .  A
N789        C794   1.355       .  A
N789        C793   1.354       .  A
N789        H821   1.037       .  S
N790        C797   1.351       .  A
N790        C798   1.350       .  A
N791        C796   1.354       .  A
N791        C795   1.355       .  A
N791        H822   1.036       .  S
N792        C799   1.351       .  A
N792        C800   1.351       .  A
C793        C801   1.389       .  A
C793        C809   1.420   1_554  A
C794        C810   1.416       .  A
C794        C802   1.387       .  A
C795        C803   1.385       .  A
C795        C812   1.415       .  A
C796       C1123   1.423       .  A
C796        C804   1.391       .  A
C797       C1121   1.407       .  A
C797        C805   1.384       .  A
C798        C812   1.412       .  A
C798        C806   1.387       .  A
C799        C807   1.387       .  A
C799        C810   1.413       .  A
C800        C808   1.386       .  A
C800        C811   1.411       .  A
C801        C802   1.376       .  A
C801        H813   1.083       .  S
C802        H814   1.083       .  S
C803        C804   1.376       .  A
C803        H815   1.083       .  S
C804        H816   1.082       .  S
C805        C806   1.373       .  A
C805        H817   1.082       .  S
C806        H818   1.081       .  S
C807        C808   1.373       .  A
C807        H819   1.081       .  S
C808        H820   1.082       .  S
C809       C1109   1.407       .  A
C809       C1010   1.477       .  S
C810        C932   1.453       .  S
C811       C1108   1.423   1_554  A
C812        C929   1.453       .  S
N823        C828   1.355       .  A
N823        C827   1.355       .  A
N823        H855   1.037       .  S
N824        C831   1.350       .  A
N824        C832   1.351       .  A
N825        C830   1.355       .  A
N825        C829   1.354       .  A
N825        H856   1.038       .  S
N826        C833   1.351       .  A
N826        C834   1.351       .  A
C827        C835   1.385       .  A
C827        C843   1.416       .  A
C828        C844   1.423       .  A
C828        C836   1.391       .  A
C829        C837   1.389       .  A
C829        C846   1.419       .  A
C830        C845   1.415       .  A
C830        C838   1.387       .  A
C831        C843   1.412       .  A
C831        C839   1.388       .  A
C832        C846   1.407       .  A
C832        C840   1.384       .  A
C833        C841   1.386       .  A
C833        C844   1.411       .  A
C834        C842   1.387       .  A
C834        C845   1.412       .  A
C835        C836   1.376       .  A
C835        H847   1.083       .  S
C836        H848   1.081       .  S
C837        C838   1.377       .  A
C837        H849   1.083       .  S
C838        H850   1.083       .  S
C839        C840   1.373       .  A
C839        H851   1.081       .  S
C840        H852   1.082       .  S
C841        C842   1.373       .  A
C841        H853   1.082       .  S
C842        H854   1.081       .  S
C843        C931   1.453       .  S
C845        C930   1.453       .  S
N857        C862   1.358       .  A
N857        C861   1.355       .  A
N857        H889   1.036       .  S
N858        C865   1.349       .  A
N858        C866   1.349       .  A
N859        C864   1.356       .  A
N859        C863   1.358       .  A
N859        H890   1.037       .  S
N860        C867   1.350       .  A
N860        C868   1.350       .  A
C861        C869   1.390       .  A
C861       C1189   1.423   1_554  A
C862        C878   1.418       .  A
C862        C870   1.386       .  A
C863        C871   1.386       .  A
C863        C880   1.417       .  A
C864        C879   1.423       .  A
C864        C872   1.390       .  A
C865        C877   1.409       .  A
C865        C873   1.386       .  A
C866        C880   1.411       .  A
C866        C874   1.386       .  A
C867        C875   1.386       .  A
C867        C878   1.413       .  A
C868        C876   1.385       .  A
C868       C1191   1.410       .  A
C869        C870   1.372       .  A
C869        H881   1.083       .  S
C870        H882   1.082       .  S
C871        C872   1.372       .  A
C871        H883   1.082       .  S
C872        H884   1.083       .  S
C873        C874   1.370       .  A
C873        H885   1.082       .  S
C874        H886   1.080       .  S
C875        C876   1.370       .  A
C875        H887   1.079       .  S
C876        H888   1.082       .  S
C877       C1173   1.423       .  A
C878        C927   1.456       .  S
C879       C1180   1.410       .  A
C879       C1048   1.478       .  S
C880        C926   1.453       .  S
N891        C896   1.354       .  A
N891        C895   1.354       .  A
N891        H923   1.038       .  S
N892        C899   1.352       .  A
N892        C900   1.354       .  A
N893        C898   1.354       .  A
N893        C897   1.354       .  A
N893        H924   1.039       .  S
N894        C901   1.353       .  A
N894        C902   1.351       .  A
C895        C903   1.385       .  A
C895        C911   1.410       .  A
C896        C912   1.415       .  A
C896        C904   1.387       .  A
C897        C905   1.388       .  A
C897        C914   1.415       .  A
C898        C913   1.409       .  A
C898        C906   1.384       .  A
C899        C911   1.419       .  A
C899        C907   1.389       .  A
C900        C914   1.413       .  A
C900        C908   1.385       .  A
C901        C909   1.385       .  A
C901        C912   1.412       .  A
C902        C910   1.389       .  A
C902        C913   1.416       .  A
C903        C904   1.371       .  A
C903        H915   1.083       .  S
C904        H916   1.079       .  S
C905        C906   1.372       .  A
C905        H917   1.079       .  S
C906        H918   1.083       .  S
C907        C908   1.371       .  A
C907        H919   1.082       .  S
C908        H920   1.082       .  S
C909        C910   1.370       .  A
C909        H921   1.082       .  S
C910        H922   1.083       .  S
C912        C925   1.453       .  S
C914        C928   1.456       .  S
C925        C926   1.208       .  T
C927        C928   1.210       .  T
C929        C930   1.208       .  T
C931        C932   1.209       .  T
C933        C934   1.208       .  T
C935        C936   1.208       .  T
C936       C1893   1.452       .  S
N937        C942   1.353   1_455  A
N937       C2189   1.352   1_455  A
N937        H969   1.038       .  S
N938        C945   1.354       .  A
N938        C946   1.353       .  A
N939        C944   1.352   1_455  A
N939       C2191   1.353   1_455  A
N939        H970   1.038       .  S
N940        C947   1.353       .  A
N940        C948   1.354       .  A
C941       N2185   1.352       .  A
C941        C949   1.388       .  A
C941        C957   1.414       .  A
C942        C958   1.412   1_655  A
C942        C950   1.386       .  A
C943       N2187   1.353       .  A
C943        C951   1.385       .  A
C944        C959   1.415   1_655  A
C944        C952   1.389       .  A
C945        C957   1.414       .  A
C945        C953   1.386       .  A
C946        C960   1.418       .  A
C946        C954   1.388       .  A
C947        C955   1.390       .  A
C948        C956   1.385       .  A
C948        C959   1.413       .  A
C949       C2198   1.375       .  A
C949        H961   1.082       .  S
C950       C2197   1.375       .  A
C950        H962   1.082       .  S
C951       C2200   1.375       .  A
C951        H963   1.082       .  S
C952       C2199   1.375       .  A
C952        H964   1.082       .  S
C953        C954   1.374       .  A
C953        H965   1.083       .  S
C954        H966   1.083       .  S
C955        C956   1.372       .  A
C955        H967   1.082       .  S
C956        H968   1.083       .  S
C957       C2496   1.452       .  S
C958       C2262   1.479   1_455  S
C959       C1246   1.452       .  S
N971        C976   1.353   1_655  A
N971        C975   1.352   1_655  A
N971       H1003   1.037       .  S
N972        C979   1.354       .  A
N972        C980   1.353       .  A
N973        C978   1.352   1_655  A
N973        C977   1.354   1_655  A
N973       H1004   1.038       .  S
N974        C981   1.352       .  A
N974        C982   1.354       .  A
C975        C983   1.389       .  A
C975        C991   1.415   1_455  A
C976        C992   1.410   1_455  A
C976        C984   1.385       .  A
C977        C985   1.386       .  A
C977        C994   1.413   1_455  A
C978        C993   1.414   1_455  A
C978        C986   1.388       .  A
C979        C991   1.413       .  A
C979        C987   1.385       .  A
C980        C994   1.420       .  A
C980        C988   1.390       .  A
C981        C989   1.389       .  A
C981        C992   1.418       .  A
C982        C990   1.386       .  A
C982        C993   1.413       .  A
C983        C984   1.376       .  A
C983        H995   1.081       .  S
C984        H996   1.083       .  S
C985        C986   1.375       .  A
C985        H997   1.082       .  S
C986        H998   1.082       .  S
C987        C988   1.372       .  A
C987        H999   1.083       .  S
C988       H1000   1.082       .  S
C989        C990   1.373       .  A
C989       H1001   1.083       .  S
C990       H1002   1.083       .  S
C991       C1247   1.453   1_655  S
C992       C2342   1.476       .  S
C993       C1245   1.452   1_655  S
C994       C2310   1.479   1_655  S
O1005      C1040   1.234       .  S
O1005     Mg2255   2.150   1_455  S
C1006      H1045   1.081       .  S
C1006      O1019   1.235       .  S
C1006      O1043   1.270       .  A
Mg1007     O2253   2.150       .  S
Mg1007     O1047   2.259       .  S
Mg1007     O1018   2.299       .  S
O1008      C1029   1.234       .  S
O1008     Mg1033   2.147       .  S
O1009     Mg1033   2.301       .  S
C1010      O1024   1.272       .  A
O1011      C2287   1.269       .  A
O1011     Mg1013   2.301   1_655  S
O1012     Mg1044   2.268       .  S
Mg1013     O1027   2.262       .  S
C1014      C2206   1.479       .  S
C1014      O1052   1.270       .  A
C1014      O2268   1.271       .  A
H1016      C1029   1.081       .  S
C1017      H1042   1.081       .  S
C1017      O1031   1.234       .  S
O1018      C1041   1.268       .  A
O1020      C2262   1.271   1_455  A
C1021      C1189   1.475       .  S
C1021      O1034   1.268       .  A
C1021      O1026   1.271       .  A
C1022      C1123   1.478       .  S
C1022      O1049   1.269       .  A
Mg1023     O1025   2.304       .  S
Mg1023     O1052   2.267       .  S
O1025      C2277   1.269       .  A
O1027      C2294   1.270       .  A
O1028      C1048   1.273       .  A
C1029      O2273   1.269       .  A
O1030      C1041   1.233       .  S
O1031     Mg2298   2.149       .  S
O1032     Mg1044   2.299   1_545  S
Mg1033     O1049   2.257       .  S
O1034     Mg1050   2.249       .  S
H1035      C1040   1.081       .  S
O1036      C1039   1.235       .  S
O1036     Mg1044   2.155       .  S
H1037      C1039   1.081       .  S
H1038      C1041   1.081       .  S
C1039      O2259   1.269       .  A
O1043     Mg1050   2.306       .  S
C1046      O2275   1.270       .  A
C1046      O1051   1.273       .  A
O1047      C1048   1.270       .  A
Mg1050     O2279   2.149   1_455  S
O1053      C1088   1.234       .  S
O1053     Mg2303   2.150       .  S
O1053     Mg1061   2.162       .  S
C1054      H1093   1.081       .  S
C1054      O1067   1.234       .  S
C1054      O1091   1.270       .  A
Mg1055     O2301   2.150   1_455  S
Mg1055     O1084   2.165       .  S
Mg1055     O1099   2.294       .  S
Mg1055     O1095   2.259       .  S
Mg1055     O1066   2.301       .  S
O1056      C1077   1.234       .  S
O1056     Mg1098   2.158       .  S
O1056     Mg1081   2.155       .  S
O1057     Mg1081   2.302   1_545  S
C1058      C1158   1.476       .  S
C1058      O1060   1.270       .  A
O1059      C2335   1.269       .  A
O1059     Mg1061   2.301       .  S
O1060     Mg1092   2.261       .  S
Mg1061     O1075   2.256       .  S
Mg1061     O1063   2.295       .  S
C1062      C2242   1.479       .  S
C1062      O2348   1.270       .  A
C1062      O1068   1.273       .  A
O1063      C1070   1.272       .  A
H1064      C1077   1.081       .  S
C1065      H1090   1.081       .  S
C1065      O1079   1.234       .  S
O1066      C1089   1.268       .  A
O1067     Mg1081   2.157       .  S
O1068     Mg1098   2.295       .  S
C1069      C1225   1.475       .  S
C1069      O1082   1.269       .  A
C1069      O1074   1.271       .  A
C1070      C1156   1.480       .  S
Mg1071     O1079   2.159       .  S
Mg1071     O1072   2.291       .  S
Mg1071     O1073   2.305   1_455  S
Mg1071     O1100   2.264       .  S
O1073      C2325   1.269       .  A
O1074     Mg1081   2.288       .  S
O1075      C1094   1.269       .  A
O1076      C1096   1.272       .  A
O1076     Mg1092   2.291       .  S
C1077      O2321   1.269       .  A
O1078      C1089   1.233       .  S
O1078     Mg1092   2.165       .  S
O1079     Mg2346   2.150   1_455  S
O1080     Mg1092   2.301       .  S
Mg1081     O1097   2.259       .  S
O1082     Mg1098   2.253       .  S
H1083      C1088   1.081       .  S
O1084      C1087   1.234       .  S
O1084     Mg1092   2.154       .  S
H1085      C1087   1.081       .  S
H1086      C1089   1.081       .  S
C1087      O2307   1.269       .  A
O1091     Mg1098   2.303       .  S
C1094      C2240   1.476       .  S
C1094      O2347   1.272       .  A
O1095      C1096   1.270       .  A
C1096      C1223   1.478       .  S
Mg1098     O2327   2.150       .  S
O1099      C2342   1.272   1_455  A
O1100      C2310   1.270       .  A
N1101      C1106   1.355       .  A
N1101      C1105   1.354       .  A
N1101      H1133   1.037       .  S
N1102      C1109   1.351       .  A
N1102      C1110   1.350       .  A
N1103      C1108   1.354       .  A
N1103      C1107   1.355       .  A
N1103      H1134   1.036       .  S
N1104      C1111   1.351       .  A
N1104      C1112   1.351       .  A
C1105      C1113   1.389       .  A
C1105      C1121   1.420       .  A
C1106      C1122   1.416       .  A
C1106      C1114   1.387       .  A
C1107      C1115   1.385       .  A
C1107      C1124   1.415       .  A
C1108      C1116   1.391       .  A
C1109      C1117   1.384       .  A
C1110      C1124   1.412       .  A
C1110      C1118   1.387       .  A
C1111      C1119   1.387       .  A
C1111      C1122   1.413       .  A
C1112      C1120   1.386       .  A
C1112      C1123   1.411       .  A
C1113      C1114   1.376       .  A
C1113      H1125   1.083       .  S
C1114      H1126   1.083       .  S
C1115      C1116   1.376       .  A
C1115      H1127   1.083       .  S
C1116      H1128   1.082       .  S
C1117      C1118   1.373       .  A
C1117      H1129   1.082       .  S
C1118      H1130   1.081       .  S
C1119      C1120   1.373       .  A
C1119      H1131   1.081       .  S
C1120      H1132   1.082       .  S
C1122      C1244   1.453       .  S
C1124      C1241   1.453       .  S
N1135      C1140   1.355       .  A
N1135      C1139   1.355       .  A
N1135      H1167   1.037       .  S
N1136      C1143   1.350       .  A
N1136      C1144   1.351       .  A
N1137      C1142   1.355       .  A
N1137      C1141   1.354       .  A
N1137      H1168   1.038       .  S
N1138      C1145   1.351       .  A
N1138      C1146   1.351       .  A
C1139      C1147   1.385       .  A
C1139      C1155   1.416       .  A
C1140      C1156   1.423       .  A
C1140      C1148   1.391       .  A
C1141      C1149   1.389       .  A
C1141      C1158   1.419       .  A
C1142      C1157   1.415       .  A
C1142      C1150   1.387       .  A
C1143      C1155   1.412       .  A
C1143      C1151   1.388       .  A
C1144      C1158   1.407       .  A
C1144      C1152   1.384       .  A
C1145      C1153   1.386       .  A
C1145      C1156   1.411       .  A
C1146      C1154   1.387       .  A
C1146      C1157   1.412       .  A
C1147      C1148   1.376       .  A
C1147      H1159   1.083       .  S
C1148      H1160   1.081       .  S
C1149      C1150   1.377       .  A
C1149      H1161   1.083       .  S
C1150      H1162   1.083       .  S
C1151      C1152   1.373       .  A
C1151      H1163   1.081       .  S
C1152      H1164   1.082       .  S
C1153      C1154   1.373       .  A
C1153      H1165   1.082       .  S
C1154      H1166   1.081       .  S
C1155      C1243   1.453       .  S
C1157      C1242   1.453       .  S
N1169      C1174   1.358       .  A
N1169      C1173   1.355       .  A
N1169      H1201   1.036       .  S
N1170      C1177   1.349       .  A
N1170      C1178   1.349       .  A
N1171      C1176   1.356       .  A
N1171      C1175   1.358       .  A
N1171      H1202   1.037       .  S
N1172      C1179   1.350       .  A
N1172      C1180   1.350       .  A
C1173      C1181   1.390       .  A
C1174      C1190   1.418       .  A
C1174      C1182   1.386       .  A
C1175      C1183   1.386       .  A
C1175      C1192   1.417       .  A
C1176      C1191   1.423   1_556  A
C1176      C1184   1.390       .  A
C1177      C1189   1.409       .  A
C1177      C1185   1.386       .  A
C1178      C1192   1.411       .  A
C1178      C1186   1.386       .  A
C1179      C1187   1.386       .  A
C1179      C1190   1.413       .  A
C1180      C1188   1.385       .  A
C1181      C1182   1.372       .  A
C1181      H1193   1.083       .  S
C1182      H1194   1.082       .  S
C1183      C1184   1.372       .  A
C1183      H1195   1.082       .  S
C1184      H1196   1.083       .  S
C1185      C1186   1.370       .  A
C1185      H1197   1.082       .  S
C1186      H1198   1.080       .  S
C1187      C1188   1.370       .  A
C1187      H1199   1.079       .  S
C1188      H1200   1.082       .  S
C1190      C1239   1.456       .  S
C1192      C1238   1.453       .  S
N1203      C1208   1.354       .  A
N1203      C1207   1.354       .  A
N1203      H1235   1.038       .  S
N1204      C1211   1.352       .  A
N1204      C1212   1.354       .  A
N1205      C1210   1.354       .  A
N1205      C1209   1.354       .  A
N1205      H1236   1.039       .  S
N1206      C1213   1.353       .  A
N1206      C1214   1.351       .  A
C1207      C1215   1.385       .  A
C1207      C1223   1.410       .  A
C1208      C1224   1.415       .  A
C1208      C1216   1.387       .  A
C1209      C1217   1.388       .  A
C1209      C1226   1.415       .  A
C1210      C1225   1.409       .  A
C1210      C1218   1.384       .  A
C1211      C1223   1.419       .  A
C1211      C1219   1.389       .  A
C1212      C1226   1.413       .  A
C1212      C1220   1.385       .  A
C1213      C1221   1.385       .  A
C1213      C1224   1.412       .  A
C1214      C1222   1.389       .  A
C1214      C1225   1.416       .  A
C1215      C1216   1.371       .  A
C1215      H1227   1.083       .  S
C1216      H1228   1.079       .  S
C1217      C1218   1.372       .  A
C1217      H1229   1.079       .  S
C1218      H1230   1.083       .  S
C1219      C1220   1.371       .  A
C1219      H1231   1.082       .  S
C1220      H1232   1.082       .  S
C1221      C1222   1.370       .  A
C1221      H1233   1.082       .  S
C1222      H1234   1.083       .  S
C1224      C1237   1.453       .  S
C1226      C1240   1.456       .  S
C1237      C1238   1.208       .  T
C1239      C1240   1.210       .  T
C1241      C1242   1.208       .  T
C1243      C1244   1.209       .  T
C1245      C1246   1.208       .  T
C1247      C1248   1.208       .  T
C1248      C2205   1.452       .  S
N1249      C1254   1.353       .  A
N1249      H1281   1.038       .  S
N1250      C1257   1.354       .  A
N1250      C1258   1.353       .  A
N1251      C1256   1.352       .  A
N1251      H1282   1.038       .  S
N1252      C1259   1.353       .  A
N1252      C1260   1.354       .  A
C1253      C1261   1.388       .  A
C1253      C1269   1.414   1_655  A
C1254      C1270   1.412       .  A
C1254      C1262   1.386       .  A
C1255      C1263   1.385       .  A
C1255      C1584   1.410   1_655  A
C1256      C1271   1.415       .  A
C1256      C1264   1.389       .  A
C1257      C1269   1.414       .  A
C1257      C1265   1.386       .  A
C1258      C1272   1.418   1_554  A
C1258      C1266   1.388       .  A
C1259      C1267   1.390       .  A
C1259      C1582   1.420       .  A
C1260      C1268   1.385       .  A
C1260      C1271   1.413       .  A
C1261      H1273   1.082       .  S
C1262      H1274   1.082       .  S
C1263      H1275   1.082       .  S
C1264      H1276   1.082       .  S
C1265      C1266   1.374       .  A
C1265      H1277   1.083       .  S
C1266      H1278   1.083       .  S
C1267      C1268   1.372       .  A
C1267      H1279   1.082       .  S
C1268      H1280   1.083       .  S
C1270      C1571   1.420   1_554  A
C1271      C1558   1.452       .  S
C1272      C1567   1.410   1_455  A
C1272      C1670   1.479       .  S
N1283      C1288   1.353       .  A
N1283      C1287   1.352       .  A
N1283      H1315   1.037       .  S
N1284      C1291   1.354       .  A
N1284      C1292   1.353       .  A
N1285      C1290   1.352       .  A
N1285      C1289   1.354       .  A
N1285      H1316   1.038       .  S
N1286      C1293   1.352       .  A
N1286      C1294   1.354       .  A
C1287      C1295   1.389       .  A
C1287      C1303   1.415       .  A
C1288      C1304   1.410       .  A
C1288      C1296   1.385       .  A
C1289      C1297   1.386       .  A
C1289      C1306   1.413       .  A
C1290      C1305   1.414       .  A
C1290      C1298   1.388       .  A
C1291      C1303   1.413       .  A
C1291      C1299   1.385       .  A
C1292      C1306   1.420       .  A
C1292      C1300   1.390       .  A
C1293      C1301   1.389       .  A
C1293      C1304   1.418       .  A
C1294      C1302   1.386       .  A
C1294      C1305   1.413       .  A
C1295      C1296   1.376       .  A
C1295      H1307   1.081       .  S
C1296      H1308   1.083       .  S
C1297      C1298   1.375       .  A
C1297      H1309   1.082       .  S
C1298      H1310   1.082       .  S
C1299      C1300   1.372       .  A
C1299      H1311   1.083       .  S
C1300      H1312   1.082       .  S
C1301      C1302   1.373       .  A
C1301      H1313   1.083       .  S
C1302      H1314   1.083       .  S
C1303      C1559   1.453       .  S
C1305      C1557   1.452       .  S
O1317      C1352   1.234       .  S
O1317     Mg1637   2.158   1_554  S
C1318      H1357   1.081       .  S
C1318      O1331   1.235       .  S
C1318      O1355   1.270       .  A
Mg1319     O1660   2.169   1_554  S
Mg1319     O1675   2.298   1_554  S
Mg1319     O1359   2.259       .  S
Mg1319     O1330   2.299       .  S
O1320      C1341   1.234       .  S
O1320     Mg1674   2.156   1_554  S
O1320     Mg1345   2.147       .  S
O1321      C1976   1.269       .  A
O1321     Mg1345   2.301   1_565  S
C1322      C1745   1.477       .  S
C1322      O1948   1.271       .  A
C1322      O1336   1.272   1_565  A
O1323     Mg1325   2.301       .  S
O1324      C1946   1.271       .  A
O1324     Mg1356   2.268       .  S
Mg1325     O1629   2.158       .  S
Mg1325     O1955   2.156       .  S
Mg1325     O1339   2.262       .  S
Mg1325     O1639   2.292       .  S
C1326      O1364   1.270       .  A
O1327      C1958   1.272       .  A
O1327     Mg1637   2.292   1_554  S
H1328      C1341   1.081       .  S
C1329      H1354   1.081       .  S
C1329      O1343   1.234       .  S
C1329      O1968   1.268       .  A
O1330      C1353   1.268       .  A
O1331     Mg1949   2.156   1_545  S
O1331     Mg1657   2.157       .  S
O1332     Mg1674   2.289   1_554  S
C1333      C1501   1.475       .  S
C1333      O1346   1.268       .  A
C1333      O1338   1.271       .  A
C1334      C1435   1.478       .  S
C1334      O1951   1.272   1_545  A
C1334      O1361   1.269       .  A
Mg1335     O1966   2.155   1_545  S
Mg1335     O1655   2.159   1_554  S
Mg1335     O1648   2.290   1_554  S
Mg1335     O1337   2.304   1_655  S
Mg1335     O1364   2.267       .  S
O1336     Mg1647   2.290       .  S
O1338     Mg1657   2.285       .  S
O1340      C1360   1.273       .  A
O1340     Mg1668   2.288   1_554  S
O1342      C1353   1.233       .  S
O1342     Mg1959   2.155       .  S
O1342     Mg1668   2.168   1_554  S
O1343     Mg1647   2.159       .  S
O1344      C1953   1.268       .  A
O1344     Mg1356   2.299       .  S
Mg1345     O1643   2.157   1_554  S
Mg1345     O1650   2.285   1_554  S
Mg1345     O1361   2.257       .  S
O1346     Mg1362   2.249       .  S
H1347      C1352   1.081       .  S
O1348      C1351   1.235       .  S
O1348     Mg1631   2.169       .  S
O1348     Mg1356   2.155       .  S
H1349      C1351   1.081       .  S
H1350      C1353   1.081       .  S
C1352      O1945   1.269       .  A
O1355     Mg1362   2.306       .  S
Mg1356     O1654   2.168       .  S
Mg1356     O1652   2.288       .  S
C1358      C1584   1.479       .  S
C1358      O1363   1.273   1_455  A
O1359      C1360   1.270       .  A
C1360      C1815   1.478       .  S
Mg1362     O1632   2.156       .  S
Mg1362     O1644   2.289       .  S
O1363     Mg1631   2.298       .  S
O1365      C1400   1.234       .  S
O1365     Mg1373   2.162       .  S
C1366      H1405   1.081       .  S
C1366      O1379   1.234       .  S
C1366      O1403   1.270       .  A
Mg1367     O1396   2.165       .  S
Mg1367     O1411   2.294       .  S
Mg1367     O1407   2.259       .  S
Mg1367     O1378   2.301       .  S
O1368      C1389   1.234       .  S
O1368     Mg1410   2.158       .  S
O1368     Mg1393   2.155       .  S
O1369      C2024   1.269       .  A
O1369     Mg1393   2.302       .  S
C1370      C1470   1.476       .  S
C1370      O1372   1.270       .  A
C1370      O2008   1.272   1_545  A
O1371     Mg1373   2.301   1_455  S
O1372     Mg1404   2.261       .  S
Mg1373     O2003   2.151   1_545  S
Mg1373     O1387   2.256       .  S
Mg1373     O1375   2.295       .  S
C1374      O1380   1.273   1_455  A
O1375      C1382   1.272   1_545  A
H1376      C1389   1.081       .  S
C1377      H1402   1.081       .  S
C1377      O1391   1.234       .  S
C1377      O2016   1.269       .  A
O1378      C1401   1.268       .  A
O1379     Mg1997   2.151       .  S
O1379     Mg1393   2.157       .  S
O1380     Mg1410   2.296       .  S
C1381      C1537   1.475       .  S
C1381      O1394   1.269       .  A
C1381      O1386   1.271       .  A
C1382      C1468   1.480       .  S
C1382      O2033   1.270       .  A
Mg1383     O2014   2.155       .  S
Mg1383     O1391   2.159       .  S
Mg1383     O1384   2.291       .  S
Mg1383     O1385   2.305       .  S
Mg1383     O1412   2.264       .  S
O1384      C1994   1.272       .  A
O1386     Mg1393   2.288       .  S
O1387      C1406   1.269       .  A
O1388      C1408   1.272       .  A
O1388     Mg1404   2.291       .  S
O1390      C1401   1.233       .  S
O1390     Mg2007   2.155   1_545  S
O1390     Mg1404   2.165       .  S
O1392      C2001   1.269       .  A
O1392     Mg1404   2.301   1_565  S
Mg1393     O1409   2.259       .  S
O1394     Mg1410   2.253       .  S
H1395      C1400   1.081       .  S
O1396      C1399   1.234       .  S
O1396     Mg1404   2.154       .  S
H1397      C1399   1.081       .  S
H1398      C1401   1.081       .  S
C1400      O1993   1.269       .  A
O1403     Mg1410   2.303       .  S
O1407      C1408   1.270       .  A
C1408      C1535   1.478       .  S
O1409      C2006   1.270       .  A
N1413      C1418   1.355   1_545  A
N1413      C1417   1.354   1_545  A
N1413      H1445   1.037       .  S
N1414      C1421   1.351   1_565  A
N1414      C1422   1.350   1_565  A
N1415      C1420   1.354   1_545  A
N1415      C1419   1.355   1_545  A
N1415      H1446   1.036       .  S
N1416      C1423   1.351       .  A
N1416      C1424   1.351       .  A
C1417      C1425   1.389       .  A
C1417      C1433   1.420   1_554  A
C1418      C1434   1.416   1_565  A
C1418      C1426   1.387       .  A
C1419      C1427   1.385       .  A
C1419      C1436   1.415       .  A
C1420      C1747   1.423   1_565  A
C1420      C1428   1.391       .  A
C1421      C1745   1.407   1_545  A
C1421      C1429   1.384       .  A
C1422      C1436   1.412   1_545  A
C1422      C1430   1.387       .  A
C1423      C1431   1.387       .  A
C1423      C1434   1.413       .  A
C1424      C1432   1.386       .  A
C1424      C1435   1.411       .  A
C1425      C1426   1.376       .  A
C1425      H1437   1.083       .  S
C1426      H1438   1.083       .  S
C1427      C1428   1.376       .  A
C1427      H1439   1.083       .  S
C1428      H1440   1.082       .  S
C1429      C1430   1.373       .  A
C1429      H1441   1.082       .  S
C1430      H1442   1.081       .  S
C1431      C1432   1.373       .  A
C1431      H1443   1.081       .  S
C1432      H1444   1.082       .  S
C1433      C1733   1.407   1_565  A
C1433      C1634   1.477       .  S
C1434      C1556   1.453       .  S
C1435      C1732   1.423   1_544  A
C1436      C1553   1.453       .  S
N1447      C1452   1.355       .  A
N1447      C1451   1.355       .  A
N1447      H1479   1.037   1_545  S
N1448      C1455   1.350   1_545  A
N1448      C1456   1.351   1_545  A
N1449      C1454   1.355   1_565  A
N1449      C1453   1.354   1_565  A
N1449      H1480   1.038       .  S
N1450      C1457   1.351       .  A
N1450      C1458   1.351       .  A
C1451      C1459   1.385       .  A
C1451      C1467   1.416       .  A
C1452      C1468   1.423   1_545  A
C1452      C1460   1.391       .  A
C1453      C1461   1.389       .  A
C1453      C1470   1.419       .  A
C1454      C1469   1.415   1_545  A
C1454      C1462   1.387       .  A
C1455      C1467   1.412   1_565  A
C1455      C1463   1.388       .  A
C1456      C1470   1.407   1_565  A
C1456      C1464   1.384       .  A
C1457      C1465   1.386       .  A
C1457      C1468   1.411       .  A
C1458      C1466   1.387       .  A
C1458      C1469   1.412       .  A
C1459      C1460   1.376       .  A
C1459      H1471   1.083       .  S
C1460      H1472   1.081       .  S
C1461      C1462   1.377       .  A
C1461      H1473   1.083       .  S
C1462      H1474   1.083       .  S
C1463      C1464   1.373       .  A
C1463      H1475   1.081       .  S
C1464      H1476   1.082       .  S
C1465      C1466   1.373       .  A
C1465      H1477   1.082       .  S
C1466      H1478   1.081       .  S
C1467      C1555   1.453       .  S
C1469      C1554   1.453       .  S
N1481      C1486   1.358       .  A
N1481      C1485   1.355       .  A
N1481      H1513   1.036       .  S
N1482      C1489   1.349       .  A
N1482      C1490   1.349       .  A
N1483      C1488   1.356       .  A
N1483      C1487   1.358       .  A
N1483      H1514   1.037       .  S
N1484      C1491   1.350       .  A
N1484      C1492   1.350       .  A
C1485      C1493   1.390       .  A
C1485      C1813   1.423   1_554  A
C1486      C1502   1.418       .  A
C1486      C1494   1.386       .  A
C1487      C1495   1.386       .  A
C1487      C1504   1.417       .  A
C1488      C1503   1.423       .  A
C1488      C1496   1.390       .  A
C1489      C1501   1.409       .  A
C1489      C1497   1.386       .  A
C1490      C1504   1.411       .  A
C1490      C1498   1.386       .  A
C1491      C1499   1.386       .  A
C1491      C1502   1.413       .  A
C1492      C1500   1.385       .  A
C1492      C1815   1.410       .  A
C1493      C1494   1.372       .  A
C1493      H1505   1.083       .  S
C1494      H1506   1.082       .  S
C1495      C1496   1.372       .  A
C1495      H1507   1.082       .  S
C1496      H1508   1.083       .  S
C1497      C1498   1.370       .  A
C1497      H1509   1.082       .  S
C1498      H1510   1.080       .  S
C1499      C1500   1.370       .  A
C1499      H1511   1.079       .  S
C1500      H1512   1.082       .  S
C1501      C1797   1.423       .  A
C1502      C1551   1.456       .  S
C1503      C1804   1.410       .  A
C1503      C1672   1.478       .  S
C1504      C1550   1.453       .  S
N1515      C1520   1.354       .  A
N1515      C1519   1.354       .  A
N1515      H1547   1.038       .  S
N1516      C1523   1.352       .  A
N1516      C1524   1.354       .  A
N1517      C1522   1.354       .  A
N1517      C1521   1.354       .  A
N1517      H1548   1.039       .  S
N1518      C1525   1.353       .  A
N1518      C1526   1.351       .  A
C1519      C1527   1.385       .  A
C1519      C1535   1.410       .  A
C1520      C1536   1.415       .  A
C1520      C1528   1.387       .  A
C1521      C1529   1.388       .  A
C1521      C1538   1.415       .  A
C1522      C1537   1.409       .  A
C1522      C1530   1.384       .  A
C1523      C1535   1.419       .  A
C1523      C1531   1.389       .  A
C1524      C1538   1.413       .  A
C1524      C1532   1.385       .  A
C1525      C1533   1.385       .  A
C1525      C1536   1.412       .  A
C1526      C1534   1.389       .  A
C1526      C1537   1.416       .  A
C1527      C1528   1.371       .  A
C1527      H1539   1.083       .  S
C1528      H1540   1.079       .  S
C1529      C1530   1.372       .  A
C1529      H1541   1.079       .  S
C1530      H1542   1.083       .  S
C1531      C1532   1.371       .  A
C1531      H1543   1.082       .  S
C1532      H1544   1.082       .  S
C1533      C1534   1.370       .  A
C1533      H1545   1.082       .  S
C1534      H1546   1.083       .  S
C1536      C1549   1.453       .  S
C1538      C1552   1.456       .  S
C1549      C1550   1.208       .  T
C1551      C1552   1.210       .  T
C1553      C1554   1.208       .  T
C1555      C1556   1.209       .  T
C1557      C1558   1.208       .  T
C1559      C1560   1.208       .  T
N1561      C1566   1.353       .  A
N1561      H1593   1.038       .  S
N1562      C1569   1.354       .  A
N1562      C1570   1.353       .  A
N1563      C1568   1.352       .  A
N1563      H1594   1.038       .  S
N1564      C1571   1.353       .  A
N1564      C1572   1.354       .  A
C1565      C1573   1.388       .  A
C1565      C1581   1.414   1_655  A
C1566      C1582   1.412       .  A
C1566      C1574   1.386       .  A
C1567      C1575   1.385       .  A
C1568      C1583   1.415       .  A
C1568      C1576   1.389       .  A
C1569      C1581   1.414       .  A
C1569      C1577   1.386       .  A
C1570      C1584   1.418       .  A
C1570      C1578   1.388       .  A
C1571      C1579   1.390       .  A
C1572      C1580   1.385       .  A
C1572      C1583   1.413       .  A
C1573      H1585   1.082       .  S
C1574      H1586   1.082       .  S
C1575      H1587   1.082       .  S
C1576      H1588   1.082       .  S
C1577      C1578   1.374       .  A
C1577      H1589   1.083       .  S
C1578      H1590   1.083       .  S
C1579      C1580   1.372       .  A
C1579      H1591   1.082       .  S
C1580      H1592   1.083       .  S
C1583      C1870   1.452       .  S
N1595      C1600   1.353       .  A
N1595      C1599   1.352       .  A
N1595      H1627   1.037       .  S
N1596      C1603   1.354       .  A
N1596      C1604   1.353       .  A
N1597      C1602   1.352       .  A
N1597      C1601   1.354       .  A
N1597      H1628   1.038       .  S
N1598      C1605   1.352       .  A
N1598      C1606   1.354       .  A
C1599      C1607   1.389       .  A
C1599      C1615   1.415       .  A
C1600      C1616   1.410       .  A
C1600      C1608   1.385       .  A
C1601      C1609   1.386       .  A
C1601      C1618   1.413       .  A
C1602      C1617   1.414       .  A
C1602      C1610   1.388       .  A
C1603      C1615   1.413       .  A
C1603      C1611   1.385       .  A
C1604      C1618   1.420       .  A
C1604      C1612   1.390       .  A
C1605      C1613   1.389       .  A
C1605      C1616   1.418       .  A
C1606      C1614   1.386       .  A
C1606      C1617   1.413       .  A
C1607      C1608   1.376       .  A
C1607      H1619   1.081       .  S
C1608      H1620   1.083       .  S
C1609      C1610   1.375       .  A
C1609      H1621   1.082       .  S
C1610      H1622   1.082       .  S
C1611      C1612   1.372       .  A
C1611      H1623   1.083       .  S
C1612      H1624   1.082       .  S
C1613      C1614   1.373       .  A
C1613      H1625   1.083       .  S
C1614      H1626   1.083       .  S
C1615      C1871   1.453       .  S
C1617      C1869   1.452       .  S
O1629      C1664   1.234       .  S
C1630      H1669   1.081       .  S
C1630      O1643   1.235       .  S
C1630      O1667   1.270       .  A
Mg1631     O1671   2.259       .  S
Mg1631     O1642   2.299       .  S
O1632      C1653   1.234       .  S
O1632     Mg1657   2.147       .  S
O1633      C2288   1.269       .  A
O1633     Mg1657   2.301   1_565  S
C1634      O2260   1.271       .  A
C1634      O1648   1.272   1_565  A
O1635     Mg1637   2.301       .  S
O1636      C2258   1.271       .  A
O1636     Mg1668   2.268       .  S
Mg1637     O2267   2.156       .  S
Mg1637     O1651   2.262       .  S
C1638      O1676   1.270       .  A
O1639      C2270   1.272       .  A
H1640      C1653   1.081       .  S
C1641      H1666   1.081       .  S
C1641      O1655   1.234       .  S
C1641      O2280   1.268       .  A
O1642      C1665   1.268       .  A
O1643     Mg2261   2.156   1_545  S
C1645      C1813   1.475       .  S
C1645      O1658   1.268       .  A
C1645      O1650   1.271       .  A
C1646      C1747   1.478       .  S
C1646      O2263   1.272   1_545  A
C1646      O1673   1.269       .  A
Mg1647     O2278   2.155   1_545  S
Mg1647     O1649   2.304   1_655  S
Mg1647     O1676   2.267       .  S
O1652      C1672   1.273       .  A
O1654      C1665   1.233       .  S
O1654     Mg2271   2.155       .  S
O1656      C2265   1.268       .  A
O1656     Mg1668   2.299       .  S
Mg1657     O1673   2.257       .  S
O1658     Mg1674   2.249       .  S
H1659      C1664   1.081       .  S
O1660      C1663   1.235       .  S
O1660     Mg1668   2.155       .  S
H1661      C1663   1.081       .  S
H1662      C1665   1.081       .  S
C1664      O2257   1.269       .  A
O1667     Mg1674   2.306       .  S
C1670      O1675   1.273   1_455  A
O1671      C1672   1.270       .  A
O1677      C1712   1.234       .  S
O1677     Mg1685   2.162       .  S
C1678      H1717   1.081       .  S
C1678      O1691   1.234       .  S
C1678      O1715   1.270       .  A
Mg1679     O1708   2.165       .  S
Mg1679     O1723   2.294       .  S
Mg1679     O1719   2.259       .  S
Mg1679     O1690   2.301       .  S
O1680      C1701   1.234       .  S
O1680     Mg1722   2.158       .  S
O1680     Mg1705   2.155       .  S
O1681      C2336   1.269       .  A
O1681     Mg1705   2.302       .  S
C1682      C1782   1.476       .  S
C1682      O1684   1.270       .  A
C1682      O2320   1.272   1_545  A
O1683     Mg1685   2.301   1_455  S
O1684     Mg1716   2.261       .  S
Mg1685     O2315   2.151   1_545  S
Mg1685     O1699   2.256       .  S
Mg1685     O1687   2.295       .  S
C1686      O1692   1.273   1_455  A
O1687      C1694   1.272   1_545  A
H1688      C1701   1.081       .  S
C1689      H1714   1.081       .  S
C1689      O1703   1.234       .  S
C1689      O2328   1.269       .  A
O1690      C1713   1.268       .  A
O1691     Mg2309   2.151       .  S
O1691     Mg1705   2.157       .  S
O1692     Mg1722   2.296       .  S
C1693      C1849   1.475       .  S
C1693      O1706   1.269       .  A
C1693      O1698   1.271       .  A
C1694      C1780   1.480       .  S
C1694      O2345   1.270       .  A
Mg1695     O2326   2.155       .  S
Mg1695     O1703   2.159       .  S
Mg1695     O1696   2.291       .  S
Mg1695     O1697   2.305       .  S
Mg1695     O1724   2.264       .  S
O1696      C2306   1.272       .  A
O1698     Mg1705   2.288       .  S
O1699      C1718   1.269       .  A
O1700      C1720   1.272       .  A
O1700     Mg1716   2.291       .  S
O1702      C1713   1.233       .  S
O1702     Mg2319   2.155   1_545  S
O1702     Mg1716   2.165       .  S
O1704      C2313   1.269       .  A
O1704     Mg1716   2.301   1_565  S
Mg1705     O1721   2.259       .  S
O1706     Mg1722   2.253       .  S
H1707      C1712   1.081       .  S
O1708      C1711   1.234       .  S
O1708     Mg1716   2.154       .  S
H1709      C1711   1.081       .  S
H1710      C1713   1.081       .  S
C1712      O2305   1.269       .  A
O1715     Mg1722   2.303       .  S
O1719      C1720   1.270       .  A
C1720      C1847   1.478       .  S
O1721      C2318   1.270       .  A
N1725      C1730   1.355   1_545  A
N1725      C1729   1.354   1_545  A
N1725      H1757   1.037       .  S
N1726      C1733   1.351   1_565  A
N1726      C1734   1.350   1_565  A
N1727      C1732   1.354   1_545  A
N1727      C1731   1.355   1_545  A
N1727      H1758   1.036       .  S
N1728      C1735   1.351       .  A
N1728      C1736   1.351       .  A
C1729      C1737   1.389       .  A
C1729      C1745   1.420       .  A
C1730      C1746   1.416   1_565  A
C1730      C1738   1.387       .  A
C1731      C1739   1.385       .  A
C1731      C1748   1.415       .  A
C1732      C1740   1.391       .  A
C1733      C1741   1.384       .  A
C1734      C1748   1.412   1_545  A
C1734      C1742   1.387       .  A
C1735      C1743   1.387       .  A
C1735      C1746   1.413       .  A
C1736      C1744   1.386       .  A
C1736      C1747   1.411       .  A
C1737      C1738   1.376       .  A
C1737      H1749   1.083       .  S
C1738      H1750   1.083       .  S
C1739      C1740   1.376       .  A
C1739      H1751   1.083       .  S
C1740      H1752   1.082       .  S
C1741      C1742   1.373       .  A
C1741      H1753   1.082       .  S
C1742      H1754   1.081       .  S
C1743      C1744   1.373       .  A
C1743      H1755   1.081       .  S
C1744      H1756   1.082       .  S
C1746      C1868   1.453       .  S
C1748      C1865   1.453       .  S
N1759      C1764   1.355       .  A
N1759      C1763   1.355       .  A
N1759      H1791   1.037   1_545  S
N1760      C1767   1.350   1_545  A
N1760      C1768   1.351   1_545  A
N1761      C1766   1.355   1_565  A
N1761      C1765   1.354   1_565  A
N1761      H1792   1.038       .  S
N1762      C1769   1.351       .  A
N1762      C1770   1.351       .  A
C1763      C1771   1.385       .  A
C1763      C1779   1.416       .  A
C1764      C1780   1.423   1_545  A
C1764      C1772   1.391       .  A
C1765      C1773   1.389       .  A
C1765      C1782   1.419       .  A
C1766      C1781   1.415   1_545  A
C1766      C1774   1.387       .  A
C1767      C1779   1.412   1_565  A
C1767      C1775   1.388       .  A
C1768      C1782   1.407   1_565  A
C1768      C1776   1.384       .  A
C1769      C1777   1.386       .  A
C1769      C1780   1.411       .  A
C1770      C1778   1.387       .  A
C1770      C1781   1.412       .  A
C1771      C1772   1.376       .  A
C1771      H1783   1.083       .  S
C1772      H1784   1.081       .  S
C1773      C1774   1.377       .  A
C1773      H1785   1.083       .  S
C1774      H1786   1.083       .  S
C1775      C1776   1.373       .  A
C1775      H1787   1.081       .  S
C1776      H1788   1.082       .  S
C1777      C1778   1.373       .  A
C1777      H1789   1.082       .  S
C1778      H1790   1.081       .  S
C1779      C1867   1.453       .  S
C1781      C1866   1.453       .  S
N1793      C1798   1.358       .  A
N1793      C1797   1.355       .  A
N1793      H1825   1.036       .  S
N1794      C1801   1.349       .  A
N1794      C1802   1.349       .  A
N1795      C1800   1.356       .  A
N1795      C1799   1.358       .  A
N1795      H1826   1.037       .  S
N1796      C1803   1.350       .  A
N1796      C1804   1.350       .  A
C1797      C1805   1.390       .  A
C1798      C1814   1.418       .  A
C1798      C1806   1.386       .  A
C1799      C1807   1.386       .  A
C1799      C1816   1.417       .  A
C1800      C1815   1.423   1_556  A
C1800      C1808   1.390       .  A
C1801      C1813   1.409       .  A
C1801      C1809   1.386       .  A
C1802      C1816   1.411       .  A
C1802      C1810   1.386       .  A
C1803      C1811   1.386       .  A
C1803      C1814   1.413       .  A
C1804      C1812   1.385       .  A
C1805      C1806   1.372       .  A
C1805      H1817   1.083       .  S
C1806      H1818   1.082       .  S
C1807      C1808   1.372       .  A
C1807      H1819   1.082       .  S
C1808      H1820   1.083       .  S
C1809      C1810   1.370       .  A
C1809      H1821   1.082       .  S
C1810      H1822   1.080       .  S
C1811      C1812   1.370       .  A
C1811      H1823   1.079       .  S
C1812      H1824   1.082       .  S
C1814      C1863   1.456       .  S
C1816      C1862   1.453       .  S
N1827      C1832   1.354       .  A
N1827      C1831   1.354       .  A
N1827      H1859   1.038       .  S
N1828      C1835   1.352       .  A
N1828      C1836   1.354       .  A
N1829      C1834   1.354       .  A
N1829      C1833   1.354       .  A
N1829      H1860   1.039       .  S
N1830      C1837   1.353       .  A
N1830      C1838   1.351       .  A
C1831      C1839   1.385       .  A
C1831      C1847   1.410       .  A
C1832      C1848   1.415       .  A
C1832      C1840   1.387       .  A
C1833      C1841   1.388       .  A
C1833      C1850   1.415       .  A
C1834      C1849   1.409       .  A
C1834      C1842   1.384       .  A
C1835      C1847   1.419       .  A
C1835      C1843   1.389       .  A
C1836      C1850   1.413       .  A
C1836      C1844   1.385       .  A
C1837      C1845   1.385       .  A
C1837      C1848   1.412       .  A
C1838      C1846   1.389       .  A
C1838      C1849   1.416       .  A
C1839      C1840   1.371       .  A
C1839      H1851   1.083       .  S
C1840      H1852   1.079       .  S
C1841      C1842   1.372       .  A
C1841      H1853   1.079       .  S
C1842      H1854   1.083       .  S
C1843      C1844   1.371       .  A
C1843      H1855   1.082       .  S
C1844      H1856   1.082       .  S
C1845      C1846   1.370       .  A
C1845      H1857   1.082       .  S
C1846      H1858   1.083       .  S
C1848      C1861   1.453       .  S
C1850      C1864   1.456       .  S
C1861      C1862   1.208       .  T
C1863      C1864   1.210       .  T
C1865      C1866   1.208       .  T
C1867      C1868   1.209       .  T
C1869      C1870   1.208       .  T
C1871      C1872   1.208       .  T
N1873      C1878   1.353       .  A
N1873      H1905   1.038       .  S
N1874      C1881   1.354       .  A
N1874      C1882   1.353       .  A
N1875      C1880   1.352       .  A
N1875      H1906   1.038       .  S
N1876      C1883   1.353       .  A
N1876      C1884   1.354       .  A
C1877      C1885   1.388       .  A
C1877      C1893   1.414   1_655  A
C1878      C1894   1.412       .  A
C1878      C1886   1.386       .  A
C1879      C1887   1.385       .  A
C1879      C2208   1.410   1_655  A
C1880      C1895   1.415       .  A
C1880      C1888   1.389       .  A
C1881      C1893   1.414       .  A
C1881      C1889   1.386       .  A
C1882      C1896   1.418   1_554  A
C1882      C1890   1.388       .  A
C1883      C1891   1.390       .  A
C1883      C2206   1.420       .  A
C1884      C1892   1.385       .  A
C1884      C1895   1.413       .  A
C1885      H1897   1.082       .  S
C1886      H1898   1.082       .  S
C1887      H1899   1.082       .  S
C1888      H1900   1.082       .  S
C1889      C1890   1.374       .  A
C1889      H1901   1.083       .  S
C1890      H1902   1.083       .  S
C1891      C1892   1.372       .  A
C1891      H1903   1.082       .  S
C1892      H1904   1.083       .  S
C1894      C2195   1.420   1_554  A
C1895      C2182   1.452       .  S
C1896      C2191   1.410   1_455  A
C1896      C2294   1.479       .  S
N1907      C1912   1.353       .  A
N1907      C1911   1.352       .  A
N1907      H1939   1.037       .  S
N1908      C1915   1.354       .  A
N1908      C1916   1.353       .  A
N1909      C1914   1.352       .  A
N1909      C1913   1.354       .  A
N1909      H1940   1.038       .  S
N1910      C1917   1.352       .  A
N1910      C1918   1.354       .  A
C1911      C1919   1.389       .  A
C1911      C1927   1.415       .  A
C1912      C1928   1.410       .  A
C1912      C1920   1.385       .  A
C1913      C1921   1.386       .  A
C1913      C1930   1.413       .  A
C1914      C1929   1.414       .  A
C1914      C1922   1.388       .  A
C1915      C1927   1.413       .  A
C1915      C1923   1.385       .  A
C1916      C1930   1.420       .  A
C1916      C1924   1.390       .  A
C1917      C1925   1.389       .  A
C1917      C1928   1.418       .  A
C1918      C1926   1.386       .  A
C1918      C1929   1.413       .  A
C1919      C1920   1.376       .  A
C1919      H1931   1.081       .  S
C1920      H1932   1.083       .  S
C1921      C1922   1.375       .  A
C1921      H1933   1.082       .  S
C1922      H1934   1.082       .  S
C1923      C1924   1.372       .  A
C1923      H1935   1.083       .  S
C1924      H1936   1.082       .  S
C1925      C1926   1.373       .  A
C1925      H1937   1.083       .  S
C1926      H1938   1.083       .  S
C1927      C2183   1.453       .  S
C1929      C2181   1.452       .  S
O1941      C1976   1.234       .  S
O1941     Mg2261   2.158   1_554  S
C1942      H1981   1.081       .  S
C1942      O1955   1.235       .  S
C1942      O1979   1.270       .  A
Mg1943     O2284   2.169   1_554  S
Mg1943     O2299   2.298   1_554  S
Mg1943     O1983   2.259       .  S
Mg1943     O1954   2.299       .  S
O1944      C1965   1.234       .  S
O1944     Mg2298   2.156   1_554  S
O1944     Mg1969   2.147       .  S
O1945     Mg1969   2.301       .  S
C1946      C2369   1.477       .  S
C1946      O1960   1.272       .  A
O1947     Mg1949   2.301       .  S
O1948     Mg1980   2.268       .  S
Mg1949     O2253   2.158       .  S
Mg1949     O1963   2.262       .  S
Mg1949     O2263   2.292       .  S
C1950      O1988   1.270       .  A
O1951     Mg2261   2.292   1_554  S
H1952      C1965   1.081       .  S
C1953      H1978   1.081       .  S
C1953      O1967   1.234       .  S
O1954      C1977   1.268       .  A
O1955     Mg2281   2.157       .  S
O1956     Mg2298   2.289   1_554  S
C1957      C2125   1.475       .  S
C1957      O1970   1.268       .  A
C1957      O1962   1.271       .  A
C1958      C2059   1.478       .  S
C1958      O1985   1.269       .  A
Mg1959     O2279   2.159   1_554  S
Mg1959     O2272   2.290   1_554  S
Mg1959     O1961   2.304   1_655  S
Mg1959     O1988   2.267       .  S
O1960     Mg2271   2.290       .  S
O1962     Mg2281   2.285       .  S
O1964      C1984   1.273       .  A
O1964     Mg2292   2.288   1_554  S
O1966      C1977   1.233       .  S
O1966     Mg2292   2.168   1_554  S
O1967     Mg2271   2.159       .  S
O1968     Mg1980   2.299   1_545  S
Mg1969     O2267   2.157   1_554  S
Mg1969     O2274   2.285   1_554  S
Mg1969     O1985   2.257       .  S
O1970     Mg1986   2.249       .  S
H1971      C1976   1.081       .  S
O1972      C1975   1.235       .  S
O1972     Mg2255   2.169       .  S
O1972     Mg1980   2.155       .  S
H1973      C1975   1.081       .  S
H1974      C1977   1.081       .  S
O1979     Mg1986   2.306       .  S
Mg1980     O2278   2.168       .  S
Mg1980     O2276   2.288       .  S
C1982      C2208   1.479       .  S
C1982      O1987   1.273   1_455  A
O1983      C1984   1.270       .  A
C1984      C2439   1.478       .  S
Mg1986     O2256   2.156       .  S
Mg1986     O2268   2.289       .  S
O1987     Mg2255   2.298       .  S
O1989      C2024   1.234       .  S
O1989     Mg1997   2.162       .  S
C1990      H2029   1.081       .  S
C1990      O2003   1.234       .  S
C1990      O2027   1.270       .  A
Mg1991     O2020   2.165       .  S
Mg1991     O2035   2.294       .  S
Mg1991     O2031   2.259       .  S
Mg1991     O2002   2.301       .  S
O1992      C2013   1.234       .  S
O1992     Mg2034   2.158       .  S
O1992     Mg2017   2.155       .  S
O1993     Mg2017   2.302   1_545  S
C1994      C2094   1.476       .  S
C1994      O1996   1.270       .  A
O1995     Mg1997   2.301   1_455  S
O1996     Mg2028   2.261       .  S
Mg1997     O2011   2.256       .  S
Mg1997     O1999   2.295       .  S
C1998      O2004   1.273   1_455  A
O1999      C2006   1.272       .  A
H2000      C2013   1.081       .  S
C2001      H2026   1.081       .  S
C2001      O2015   1.234       .  S
O2002      C2025   1.268       .  A
O2003     Mg2017   2.157       .  S
O2004     Mg2034   2.296       .  S
C2005      C2161   1.475       .  S
C2005      O2018   1.269       .  A
C2005      O2010   1.271       .  A
C2006      C2092   1.480       .  S
Mg2007     O2015   2.159       .  S
Mg2007     O2008   2.291       .  S
Mg2007     O2009   2.305       .  S
Mg2007     O2036   2.264       .  S
O2010     Mg2017   2.288       .  S
O2011      C2030   1.269       .  A
O2012      C2032   1.272       .  A
O2012     Mg2028   2.291       .  S
O2014      C2025   1.233       .  S
O2014     Mg2028   2.165       .  S
O2016     Mg2028   2.301       .  S
Mg2017     O2033   2.259       .  S
O2018     Mg2034   2.253       .  S
H2019      C2024   1.081       .  S
O2020      C2023   1.234       .  S
O2020     Mg2028   2.154       .  S
H2021      C2023   1.081       .  S
H2022      C2025   1.081       .  S
O2027     Mg2034   2.303       .  S
O2031      C2032   1.270       .  A
C2032      C2159   1.478       .  S
N2037      C2042   1.355       .  A
N2037      C2041   1.354       .  A
N2037      H2069   1.037       .  S
N2038      C2045   1.351       .  A
N2038      C2046   1.350       .  A
N2039      C2044   1.354       .  A
N2039      C2043   1.355       .  A
N2039      H2070   1.036       .  S
N2040      C2047   1.351       .  A
N2040      C2048   1.351       .  A
C2041      C2049   1.389       .  A
C2041      C2057   1.420   1_554  A
C2042      C2058   1.416       .  A
C2042      C2050   1.387       .  A
C2043      C2051   1.385       .  A
C2043      C2060   1.415       .  A
C2044      C2371   1.423       .  A
C2044      C2052   1.391       .  A
C2045      C2369   1.407       .  A
C2045      C2053   1.384       .  A
C2046      C2060   1.412       .  A
C2046      C2054   1.387       .  A
C2047      C2055   1.387       .  A
C2047      C2058   1.413       .  A
C2048      C2056   1.386       .  A
C2048      C2059   1.411       .  A
C2049      C2050   1.376       .  A
C2049      H2061   1.083       .  S
C2050      H2062   1.083       .  S
C2051      C2052   1.376       .  A
C2051      H2063   1.083       .  S
C2052      H2064   1.082       .  S
C2053      C2054   1.373       .  A
C2053      H2065   1.082       .  S
C2054      H2066   1.081       .  S
C2055      C2056   1.373       .  A
C2055      H2067   1.081       .  S
C2056      H2068   1.082       .  S
C2057      C2357   1.407       .  A
C2057      C2258   1.477       .  S
C2058      C2180   1.453       .  S
C2059      C2356   1.423   1_554  A
C2060      C2177   1.453       .  S
N2071      C2076   1.355       .  A
N2071      C2075   1.355       .  A
N2071      H2103   1.037       .  S
N2072      C2079   1.350       .  A
N2072      C2080   1.351       .  A
N2073      C2078   1.355       .  A
N2073      C2077   1.354       .  A
N2073      H2104   1.038       .  S
N2074      C2081   1.351       .  A
N2074      C2082   1.351       .  A
C2075      C2083   1.385       .  A
C2075      C2091   1.416       .  A
C2076      C2092   1.423       .  A
C2076      C2084   1.391       .  A
C2077      C2085   1.389       .  A
C2077      C2094   1.419       .  A
C2078      C2093   1.415       .  A
C2078      C2086   1.387       .  A
C2079      C2091   1.412       .  A
C2079      C2087   1.388       .  A
C2080      C2094   1.407       .  A
C2080      C2088   1.384       .  A
C2081      C2089   1.386       .  A
C2081      C2092   1.411       .  A
C2082      C2090   1.387       .  A
C2082      C2093   1.412       .  A
C2083      C2084   1.376       .  A
C2083      H2095   1.083       .  S
C2084      H2096   1.081       .  S
C2085      C2086   1.377       .  A
C2085      H2097   1.083       .  S
C2086      H2098   1.083       .  S
C2087      C2088   1.373       .  A
C2087      H2099   1.081       .  S
C2088      H2100   1.082       .  S
C2089      C2090   1.373       .  A
C2089      H2101   1.082       .  S
C2090      H2102   1.081       .  S
C2091      C2179   1.453       .  S
C2093      C2178   1.453       .  S
N2105      C2110   1.358       .  A
N2105      C2109   1.355       .  A
N2105      H2137   1.036       .  S
N2106      C2113   1.349       .  A
N2106      C2114   1.349       .  A
N2107      C2112   1.356       .  A
N2107      C2111   1.358       .  A
N2107      H2138   1.037       .  S
N2108      C2115   1.350       .  A
N2108      C2116   1.350       .  A
C2109      C2117   1.390       .  A
C2109      C2437   1.423   1_554  A
C2110      C2126   1.418       .  A
C2110      C2118   1.386       .  A
C2111      C2119   1.386       .  A
C2111      C2128   1.417       .  A
C2112      C2127   1.423       .  A
C2112      C2120   1.390       .  A
C2113      C2125   1.409       .  A
C2113      C2121   1.386       .  A
C2114      C2128   1.411       .  A
C2114      C2122   1.386       .  A
C2115      C2123   1.386       .  A
C2115      C2126   1.413       .  A
C2116      C2124   1.385       .  A
C2116      C2439   1.410       .  A
C2117      C2118   1.372       .  A
C2117      H2129   1.083       .  S
C2118      H2130   1.082       .  S
C2119      C2120   1.372       .  A
C2119      H2131   1.082       .  S
C2120      H2132   1.083       .  S
C2121      C2122   1.370       .  A
C2121      H2133   1.082       .  S
C2122      H2134   1.080       .  S
C2123      C2124   1.370       .  A
C2123      H2135   1.079       .  S
C2124      H2136   1.082       .  S
C2125      C2421   1.423       .  A
C2126      C2175   1.456       .  S
C2127      C2428   1.410       .  A
C2127      C2296   1.478       .  S
C2128      C2174   1.453       .  S
N2139      C2144   1.354       .  A
N2139      C2143   1.354       .  A
N2139      H2171   1.038       .  S
N2140      C2147   1.352       .  A
N2140      C2148   1.354       .  A
N2141      C2146   1.354       .  A
N2141      C2145   1.354       .  A
N2141      H2172   1.039       .  S
N2142      C2149   1.353       .  A
N2142      C2150   1.351       .  A
C2143      C2151   1.385       .  A
C2143      C2159   1.410       .  A
C2144      C2160   1.415       .  A
C2144      C2152   1.387       .  A
C2145      C2153   1.388       .  A
C2145      C2162   1.415       .  A
C2146      C2161   1.409       .  A
C2146      C2154   1.384       .  A
C2147      C2159   1.419       .  A
C2147      C2155   1.389       .  A
C2148      C2162   1.413       .  A
C2148      C2156   1.385       .  A
C2149      C2157   1.385       .  A
C2149      C2160   1.412       .  A
C2150      C2158   1.389       .  A
C2150      C2161   1.416       .  A
C2151      C2152   1.371       .  A
C2151      H2163   1.083       .  S
C2152      H2164   1.079       .  S
C2153      C2154   1.372       .  A
C2153      H2165   1.079       .  S
C2154      H2166   1.083       .  S
C2155      C2156   1.371       .  A
C2155      H2167   1.082       .  S
C2156      H2168   1.082       .  S
C2157      C2158   1.370       .  A
C2157      H2169   1.082       .  S
C2158      H2170   1.083       .  S
C2160      C2173   1.453       .  S
C2162      C2176   1.456       .  S
C2173      C2174   1.208       .  T
C2175      C2176   1.210       .  T
C2177      C2178   1.208       .  T
C2179      C2180   1.209       .  T
C2181      C2182   1.208       .  T
C2183      C2184   1.208       .  T
N2185      C2190   1.353       .  A
N2185      H2217   1.038       .  S
N2186      C2193   1.354       .  A
N2186      C2194   1.353       .  A
N2187      C2192   1.352       .  A
N2187      H2218   1.038       .  S
N2188      C2195   1.353       .  A
N2188      C2196   1.354       .  A
C2189      C2197   1.388       .  A
C2189      C2205   1.414   1_655  A
C2190      C2206   1.412       .  A
C2190      C2198   1.386       .  A
C2191      C2199   1.385       .  A
C2192      C2207   1.415       .  A
C2192      C2200   1.389       .  A
C2193      C2205   1.414       .  A
C2193      C2201   1.386       .  A
C2194      C2208   1.418       .  A
C2194      C2202   1.388       .  A
C2195      C2203   1.390       .  A
C2196      C2204   1.385       .  A
C2196      C2207   1.413       .  A
C2197      H2209   1.082       .  S
C2198      H2210   1.082       .  S
C2199      H2211   1.082       .  S
C2200      H2212   1.082       .  S
C2201      C2202   1.374       .  A
C2201      H2213   1.083       .  S
C2202      H2214   1.083       .  S
C2203      C2204   1.372       .  A
C2203      H2215   1.082       .  S
C2204      H2216   1.083       .  S
C2207      C2494   1.452       .  S
N2219      C2224   1.353       .  A
N2219      C2223   1.352       .  A
N2219      H2251   1.037       .  S
N2220      C2227   1.354       .  A
N2220      C2228   1.353       .  A
N2221      C2226   1.352       .  A
N2221      C2225   1.354       .  A
N2221      H2252   1.038       .  S
N2222      C2229   1.352       .  A
N2222      C2230   1.354       .  A
C2223      C2231   1.389       .  A
C2223      C2239   1.415       .  A
C2224      C2240   1.410       .  A
C2224      C2232   1.385       .  A
C2225      C2233   1.386       .  A
C2225      C2242   1.413       .  A
C2226      C2241   1.414       .  A
C2226      C2234   1.388       .  A
C2227      C2239   1.413       .  A
C2227      C2235   1.385       .  A
C2228      C2242   1.420       .  A
C2228      C2236   1.390       .  A
C2229      C2237   1.389       .  A
C2229      C2240   1.418       .  A
C2230      C2238   1.386       .  A
C2230      C2241   1.413       .  A
C2231      C2232   1.376       .  A
C2231      H2243   1.081       .  S
C2232      H2244   1.083       .  S
C2233      C2234   1.375       .  A
C2233      H2245   1.082       .  S
C2234      H2246   1.082       .  S
C2235      C2236   1.372       .  A
C2235      H2247   1.083       .  S
C2236      H2248   1.082       .  S
C2237      C2238   1.373       .  A
C2237      H2249   1.083       .  S
C2238      H2250   1.083       .  S
C2239      C2495   1.453       .  S
C2241      C2493   1.452       .  S
O2253      C2288   1.234       .  S
C2254      H2293   1.081       .  S
C2254      O2267   1.235       .  S
C2254      O2291   1.270       .  A
Mg2255     O2295   2.259       .  S
Mg2255     O2266   2.299       .  S
O2256      C2277   1.234       .  S
O2256     Mg2281   2.147       .  S
O2257     Mg2281   2.301       .  S
C2258      O2272   1.272       .  A
O2259     Mg2261   2.301       .  S
O2260     Mg2292   2.268       .  S
Mg2261     O2275   2.262       .  S
C2262      O2300   1.270       .  A
H2264      C2277   1.081       .  S
C2265      H2290   1.081       .  S
C2265      O2279   1.234       .  S
O2266      C2289   1.268       .  A
C2269      C2437   1.475       .  S
C2269      O2282   1.268       .  A
C2269      O2274   1.271       .  A
C2270      C2371   1.478       .  S
C2270      O2297   1.269       .  A
Mg2271     O2273   2.304   1_655  S
Mg2271     O2300   2.267       .  S
O2276      C2296   1.273       .  A
O2278      C2289   1.233       .  S
O2280     Mg2292   2.299   1_545  S
Mg2281     O2297   2.257       .  S
O2282     Mg2298   2.249       .  S
H2283      C2288   1.081       .  S
O2284      C2287   1.235       .  S
O2284     Mg2292   2.155       .  S
H2285      C2287   1.081       .  S
H2286      C2289   1.081       .  S
O2291     Mg2298   2.306       .  S
C2294      O2299   1.273   1_455  A
O2295      C2296   1.270       .  A
O2301      C2336   1.234       .  S
O2301     Mg2309   2.162       .  S
C2302      H2341   1.081       .  S
C2302      O2315   1.234       .  S
C2302      O2339   1.270       .  A
Mg2303     O2332   2.165       .  S
Mg2303     O2347   2.294       .  S
Mg2303     O2343   2.259       .  S
Mg2303     O2314   2.301       .  S
O2304      C2325   1.234       .  S
O2304     Mg2346   2.158       .  S
O2304     Mg2329   2.155       .  S
O2305     Mg2329   2.302   1_545  S
C2306      C2406   1.476       .  S
C2306      O2308   1.270       .  A
O2307     Mg2309   2.301   1_455  S
O2308     Mg2340   2.261       .  S
Mg2309     O2323   2.256       .  S
Mg2309     O2311   2.295       .  S
C2310      O2316   1.273   1_455  A
O2311      C2318   1.272       .  A
H2312      C2325   1.081       .  S
C2313      H2338   1.081       .  S
C2313      O2327   1.234       .  S
O2314      C2337   1.268       .  A
O2315     Mg2329   2.157       .  S
O2316     Mg2346   2.296       .  S
C2317      C2473   1.475       .  S
C2317      O2330   1.269       .  A
C2317      O2322   1.271       .  A
C2318      C2404   1.480       .  S
Mg2319     O2327   2.159       .  S
Mg2319     O2320   2.291       .  S
Mg2319     O2321   2.305       .  S
Mg2319     O2348   2.264       .  S
O2322     Mg2329   2.288       .  S
O2323      C2342   1.269       .  A
O2324      C2344   1.272       .  A
O2324     Mg2340   2.291       .  S
O2326      C2337   1.233       .  S
O2326     Mg2340   2.165       .  S
O2328     Mg2340   2.301       .  S
Mg2329     O2345   2.259       .  S
O2330     Mg2346   2.253       .  S
H2331      C2336   1.081       .  S
O2332      C2335   1.234       .  S
O2332     Mg2340   2.154       .  S
H2333      C2335   1.081       .  S
H2334      C2337   1.081       .  S
O2339     Mg2346   2.303       .  S
O2343      C2344   1.270       .  A
C2344      C2471   1.478       .  S
N2349      C2354   1.355       .  A
N2349      C2353   1.354       .  A
N2349      H2381   1.037       .  S
N2350      C2357   1.351       .  A
N2350      C2358   1.350       .  A
N2351      C2356   1.354       .  A
N2351      C2355   1.355       .  A
N2351      H2382   1.036       .  S
N2352      C2359   1.351       .  A
N2352      C2360   1.351       .  A
C2353      C2361   1.389       .  A
C2353      C2369   1.420       .  A
C2354      C2370   1.416       .  A
C2354      C2362   1.387       .  A
C2355      C2363   1.385       .  A
C2355      C2372   1.415       .  A
C2356      C2364   1.391       .  A
C2357      C2365   1.384       .  A
C2358      C2372   1.412       .  A
C2358      C2366   1.387       .  A
C2359      C2367   1.387       .  A
C2359      C2370   1.413       .  A
C2360      C2368   1.386       .  A
C2360      C2371   1.411       .  A
C2361      C2362   1.376       .  A
C2361      H2373   1.083       .  S
C2362      H2374   1.083       .  S
C2363      C2364   1.376       .  A
C2363      H2375   1.083       .  S
C2364      H2376   1.082       .  S
C2365      C2366   1.373       .  A
C2365      H2377   1.082       .  S
C2366      H2378   1.081       .  S
C2367      C2368   1.373       .  A
C2367      H2379   1.081       .  S
C2368      H2380   1.082       .  S
C2370      C2492   1.453       .  S
C2372      C2489   1.453       .  S
N2383      C2388   1.355       .  A
N2383      C2387   1.355       .  A
N2383      H2415   1.037       .  S
N2384      C2391   1.350       .  A
N2384      C2392   1.351       .  A
N2385      C2390   1.355       .  A
N2385      C2389   1.354       .  A
N2385      H2416   1.038       .  S
N2386      C2393   1.351       .  A
N2386      C2394   1.351       .  A
C2387      C2395   1.385       .  A
C2387      C2403   1.416       .  A
C2388      C2404   1.423       .  A
C2388      C2396   1.391       .  A
C2389      C2397   1.389       .  A
C2389      C2406   1.419       .  A
C2390      C2405   1.415       .  A
C2390      C2398   1.387       .  A
C2391      C2403   1.412       .  A
C2391      C2399   1.388       .  A
C2392      C2406   1.407       .  A
C2392      C2400   1.384       .  A
C2393      C2401   1.386       .  A
C2393      C2404   1.411       .  A
C2394      C2402   1.387       .  A
C2394      C2405   1.412       .  A
C2395      C2396   1.376       .  A
C2395      H2407   1.083       .  S
C2396      H2408   1.081       .  S
C2397      C2398   1.377       .  A
C2397      H2409   1.083       .  S
C2398      H2410   1.083       .  S
C2399      C2400   1.373       .  A
C2399      H2411   1.081       .  S
C2400      H2412   1.082       .  S
C2401      C2402   1.373       .  A
C2401      H2413   1.082       .  S
C2402      H2414   1.081       .  S
C2403      C2491   1.453       .  S
C2405      C2490   1.453       .  S
N2417      C2422   1.358       .  A
N2417      C2421   1.355       .  A
N2417      H2449   1.036       .  S
N2418      C2425   1.349       .  A
N2418      C2426   1.349       .  A
N2419      C2424   1.356       .  A
N2419      C2423   1.358       .  A
N2419      H2450   1.037       .  S
N2420      C2427   1.350       .  A
N2420      C2428   1.350       .  A
C2421      C2429   1.390       .  A
C2422      C2438   1.418       .  A
C2422      C2430   1.386       .  A
C2423      C2431   1.386       .  A
C2423      C2440   1.417       .  A
C2424      C2439   1.423   1_556  A
C2424      C2432   1.390       .  A
C2425      C2437   1.409       .  A
C2425      C2433   1.386       .  A
C2426      C2440   1.411       .  A
C2426      C2434   1.386       .  A
C2427      C2435   1.386       .  A
C2427      C2438   1.413       .  A
C2428      C2436   1.385       .  A
C2429      C2430   1.372       .  A
C2429      H2441   1.083       .  S
C2430      H2442   1.082       .  S
C2431      C2432   1.372       .  A
C2431      H2443   1.082       .  S
C2432      H2444   1.083       .  S
C2433      C2434   1.370       .  A
C2433      H2445   1.082       .  S
C2434      H2446   1.080       .  S
C2435      C2436   1.370       .  A
C2435      H2447   1.079       .  S
C2436      H2448   1.082       .  S
C2438      C2487   1.456       .  S
C2440      C2486   1.453       .  S
N2451      C2456   1.354       .  A
N2451      C2455   1.354       .  A
N2451      H2483   1.038       .  S
N2452      C2459   1.352       .  A
N2452      C2460   1.354       .  A
N2453      C2458   1.354       .  A
N2453      C2457   1.354       .  A
N2453      H2484   1.039       .  S
N2454      C2461   1.353       .  A
N2454      C2462   1.351       .  A
C2455      C2463   1.385       .  A
C2455      C2471   1.410       .  A
C2456      C2472   1.415       .  A
C2456      C2464   1.387       .  A
C2457      C2465   1.388       .  A
C2457      C2474   1.415       .  A
C2458      C2473   1.409       .  A
C2458      C2466   1.384       .  A
C2459      C2471   1.419       .  A
C2459      C2467   1.389       .  A
C2460      C2474   1.413       .  A
C2460      C2468   1.385       .  A
C2461      C2469   1.385       .  A
C2461      C2472   1.412       .  A
C2462      C2470   1.389       .  A
C2462      C2473   1.416       .  A
C2463      C2464   1.371       .  A
C2463      H2475   1.083       .  S
C2464      H2476   1.079       .  S
C2465      C2466   1.372       .  A
C2465      H2477   1.079       .  S
C2466      H2478   1.083       .  S
C2467      C2468   1.371       .  A
C2467      H2479   1.082       .  S
C2468      H2480   1.082       .  S
C2469      C2470   1.370       .  A
C2469      H2481   1.082       .  S
C2470      H2482   1.083       .  S
C2472      C2485   1.453       .  S
C2474      C2488   1.456       .  S
C2485      C2486   1.208       .  T
C2487      C2488   1.210       .  T
C2489      C2490   1.208       .  T
C2491      C2492   1.209       .  T
C2493      C2494   1.208       .  T
C2495      C2496   1.208       .  T
