geometry optimzed in LAMMPS
_audit_creation_date              2020-12-01 
_audit_creation_method            'lammps2cif' 
_symmetry_space_group_name_H-M    'P1' 
_symmetry_Int_Tables_number       1 
_symmetry_cell_setting            triclinic 
loop_ 
_symmetry_equiv_pos_as_xyz 
  x,y,z 
_cell_length_a                    56.10710612 
_cell_length_b                    56.15703823666421 
_cell_length_c                    30.38390128610631 
_cell_angle_alpha                 89.76543371132648 
_cell_angle_beta                  90.36245188004825 
_cell_angle_gamma                 119.93557944999299 
loop_ 
_atom_site_label 
_atom_site_type_symbol 
_atom_site_fract_x 
_atom_site_fract_y 
_atom_site_fract_z 
_atom_site_charge 
O1          O  0.47706298  0.23742021  0.06280860    -0.74900
O2          O  0.47849783  0.23965832  0.93693320    -0.74900
O3          O  0.47871677  0.20489935  0.99852492    -0.75000
O4          O  0.47694826  0.27224585  0.00079950    -0.75000
O5          O  0.02278489  0.29590161  0.00197545    -0.74900
O6          O  0.02452735  0.22857531  0.00160885    -0.74900
O7          O  0.02432649  0.26278015  0.93849700    -0.74900
O8          O  0.02287504  0.26176425  0.06458231    -0.75000
Ni9        Ni  0.47618237  0.23770948  0.99973818     1.25400
Ni10       Ni  0.02526236  0.26308933  0.00169042     1.25400
C11         C  0.99971598  0.24947245  0.08448766     0.87300
C12         C  0.00160643  0.25143219  0.91688040     0.87200
C13         C  0.50191058  0.20562189  0.99973783     0.87300
C14         C  0.49960516  0.29520544  0.00174549     0.87400
O15         O  0.02266157  0.22748710  0.49970755    -0.74900
O16         O  0.02214961  0.29543651  0.50060975    -0.74900
O17         O  0.02314522  0.26161899  0.56319040    -0.75000
O18         O  0.02174358  0.26134481  0.43727999    -0.75000
O19         O  0.47590145  0.23842885  0.43798883    -0.74900
O20         O  0.47729042  0.23817994  0.56411193    -0.74900
O21         O  0.47630874  0.27230757  0.50140026    -0.74900
O22         O  0.47681383  0.20441816  0.50065734    -0.75000
Ni23       Ni  0.02405222  0.26229864  0.50017702     1.25400
Ni24       Ni  0.47494631  0.23752702  0.50108675     1.25400
C25         C  0.99979562  0.20473233  0.49994538     0.87300
C26         C  0.99913821  0.29508905  0.50106812     0.87200
C27         C  0.00045611  0.24986725  0.58442777     0.87300
C28         C  0.99863801  0.24978686  0.41682161     0.87400
C29         C  0.47536806  0.47577776  0.99811375     0.01800
C30         C  0.00029252  0.47518448  0.99901886     0.01800
C31         C  0.02574366  0.00007558  0.99883994     0.01800
C32         C  0.02633219  0.02552545  0.99729567     0.01800
C33         C  0.00147766  0.02611678  0.99602244     0.01800
C34         C  0.47598743  0.00127532  0.99666045     0.01800
C35         C  0.47401890  0.47482240  0.49932252     0.01800
C36         C  0.99908841  0.47454507  0.49921700     0.01800
C37         C  0.02441767  0.99958706  0.49916085     0.01800
C38         C  0.02470738  0.02493755  0.49927316     0.01800
C39         C  0.99961759  0.02518794  0.49946107     0.01800
C40         C  0.47430246  0.00015048  0.49961034     0.01800
O41         O  0.23900526  0.47686777  0.06389680    -0.74900
O42         O  0.23934089  0.47712807  0.93790487    -0.74900
O43         O  0.27350770  0.47738040  0.00172041    -0.75000
O44         O  0.20484590  0.47651175  0.00006334    -0.75000
O45         O  0.22726939  0.02231210  0.00165317    -0.74900
O46         O  0.29599593  0.02318355  0.00044924    -0.74900
O47         O  0.26129360  0.02291363  0.93800292    -0.74900
O48         O  0.26206936  0.02265581  0.06408880    -0.75000
Ni49       Ni  0.23838556  0.47535407  0.00089051     1.25400
Ni50       Ni  0.26245195  0.02440422  0.00105284     1.25400
C51         C  0.25060414  0.99971203  0.08484600     0.87300
C52         C  0.25026489  0.00005158  0.91712006     0.87200
C53         C  0.29608077  0.50040308  0.00116116     0.87300
C54         C  0.20471670  0.49925070  0.00079397     0.87400
O55         O  0.23813400  0.47626292  0.56419613    -0.74900
O56         O  0.23717051  0.47589668  0.43809597    -0.74900
O57         O  0.27190888  0.47637676  0.50108964    -0.75000
O58         O  0.20339023  0.47577102  0.50116180    -0.75000
O59         O  0.22603821  0.02157871  0.50002984    -0.74900
O60         O  0.29450104  0.02218608  0.50154342    -0.74900
O61         O  0.26063783  0.02173801  0.43783014    -0.74900
O62         O  0.26000863  0.02207499  0.56377733    -0.75000
Ni63       Ni  0.23684032  0.47443612  0.50116170     1.25400
Ni64       Ni  0.26108405  0.02351835  0.50078511     1.25400
C65         C  0.24911462  0.99923420  0.58476015     0.87300
C66         C  0.24898229  0.99878598  0.41723473     0.87200
C67         C  0.29451411  0.99938214  0.50132880     0.87300
C68         C  0.20341607  0.99859848  0.50047883     0.87400
O69         O  0.26113836  0.23942304  0.06317397    -0.74900
O70         O  0.26257982  0.23952170  0.93718489    -0.74900
O71         O  0.29593362  0.27385605  0.00131744    -0.75000
O72         O  0.22808552  0.20534477  0.99951869    -0.75000
O73         O  0.20484395  0.22795980  0.99623491    -0.74900
O74         O  0.27271078  0.29650153  0.00030786    -0.74900
O75         O  0.24025758  0.26309908  0.93557699    -0.74900
O76         O  0.23752562  0.26166523  0.06154780    -0.75000
Ni77       Ni  0.26278888  0.23876174  0.00032999     1.25400
Ni78       Ni  0.23798137  0.26308791  0.99840360     1.25400
C79         C  0.24899342  0.25040148  0.08318215     0.87300
C80         C  0.25172521  0.25141956  0.91566011     0.87200
C81         C  0.29554236  0.29649145  0.00121590     0.87300
C82         C  0.20528296  0.20535211  0.99735567     0.87400
O83         O  0.22733149  0.20411704  0.49951262    -0.74900
O84         O  0.29520334  0.27253173  0.49911552    -0.74900
O85         O  0.26167092  0.23854572  0.56240043    -0.75000
O86         O  0.26101064  0.23834636  0.43626388    -0.75000
O87         O  0.23657135  0.25975794  0.43637797    -0.74900
O88         O  0.23934727  0.26206761  0.56229099    -0.74900
O89         O  0.27193313  0.29511934  0.49708572    -0.74900
O90         O  0.20410873  0.22673185  0.50143618    -0.75000
Ni91       Ni  0.26211332  0.23755394  0.49933259     1.25400
Ni92       Ni  0.23716670  0.26172094  0.49931359     1.25400
C93         C  0.20449922  0.20411597  0.50066787     0.87300
C94         C  0.29477939  0.29512237  0.49774291     0.87200
C95         C  0.25085017  0.25058967  0.58320100     0.87300
C96         C  0.24857887  0.24894471  0.41553169     0.87400
C97         C  0.25489369  0.27445071  0.79777811    -0.11300
C98         C  0.25249240  0.25182092  0.77419344     0.05900
C99         C  0.25007418  0.22912929  0.79794164    -0.10000
C100        C  0.25030866  0.22919622  0.84395404    -0.11700
C101        C  0.25231222  0.25165041  0.86718979    -0.01500
C102        C  0.25448767  0.27421701  0.84376056    -0.10600
C103        C  0.25238791  0.25182570  0.72513741     0.05900
H104        H  0.24758466  0.21109423  0.78104302     0.07800
H105        H  0.24828450  0.21142115  0.86139907     0.11300
H106        H  0.25630733  0.29188082  0.86106734     0.11500
H107        H  0.25737354  0.29251803  0.78077960     0.07800
C108        C  0.24016989  0.26455075  0.70136350    -0.11300
C109        C  0.23987361  0.26434063  0.65536246    -0.10600
C110        C  0.25159196  0.25122140  0.63194986    -0.01500
C111        C  0.26391045  0.23860743  0.65559396    -0.11700
C112        C  0.26438411  0.23898221  0.70158886    -0.10100
H113        H  0.23033875  0.27426877  0.71823342     0.07800
H114        H  0.23020907  0.27425804  0.63816284     0.11500
H115        H  0.27325893  0.22844895  0.63857390     0.11300
H116        H  0.27446529  0.22944771  0.71863919     0.07800
C117        C  0.24032330  0.26645836  0.20117930    -0.11300
C118        C  0.24795353  0.24971917  0.22494318     0.05900
C119        C  0.25552529  0.23299662  0.20151637    -0.10000
C120        C  0.25583238  0.23325613  0.15557693    -0.11700
C121        C  0.24831188  0.25003840  0.13186661    -0.01500
C122        C  0.24038822  0.26652402  0.15513199    -0.10600
C123        C  0.24812379  0.24966738  0.27391271     0.05900
H124        H  0.26096041  0.21942973  0.21867615     0.07800
H125        H  0.26179028  0.22012173  0.13861785     0.11300
H126        H  0.23461271  0.27978095  0.13777191     0.11500
H127        H  0.23473589  0.27986771  0.21814066     0.07800
C128        C  0.26857602  0.24733946  0.29736704    -0.11300
C129        C  0.26850694  0.24675286  0.34333631    -0.10600
C130        C  0.24825471  0.24892780  0.36692329    -0.01500
C131        C  0.22794567  0.25151005  0.34366389    -0.11700
C132        C  0.22777778  0.25171089  0.29765055    -0.10100
H133        H  0.28487437  0.24628426  0.28021198     0.07800
H134        H  0.28459700  0.24506773  0.36044761     0.11500
H135        H  0.21197142  0.25303721  0.36105704     0.11300
H136        H  0.21147534  0.25307919  0.28069211     0.07800
C137        C  0.25098412  0.02195017  0.70242022    -0.11300
C138        C  0.24961829  0.99979786  0.72634083     0.05900
C139        C  0.24807719  0.47746056  0.70303821    -0.10000
C140        C  0.24766240  0.47717503  0.65705577    -0.11700
C141        C  0.24924562  0.99941017  0.63333783    -0.01500
C142        C  0.25102387  0.02184906  0.65642447    -0.10600
C143        C  0.24976091  0.99994297  0.77532401     0.05900
H144        H  0.24754482  0.46030332  0.72030154     0.07800
H145        H  0.24655597  0.45973940  0.64003047     0.11300
H146        H  0.25201430  0.03915196  0.63889451     0.11500
H147        H  0.25166798  0.03924827  0.71920529     0.07800
C148        C  0.26573247  0.02449425  0.79880205    -0.11300
C149        C  0.26580146  0.02457676  0.84481124    -0.10600
C150        C  0.25010478  0.00007266  0.86841672    -0.01500
C151        C  0.23421887  0.47552658  0.84503452    -0.11700
C152        C  0.23393766  0.47548252  0.79906379    -0.10100
H153        H  0.27853014  0.04363098  0.78165936     0.07800
H154        H  0.27839177  0.04380539  0.86188381     0.11500
H155        H  0.22174642  0.45633104  0.86225957     0.11300
H156        H  0.22099938  0.45629064  0.78214729     0.07800
C157        C  0.22748480  0.47841651  0.29890564    -0.11300
C158        C  0.25017194  0.99896316  0.27578943     0.05900
C159        C  0.27245333  0.01936694  0.29997474    -0.10000
C160        C  0.27189059  0.01943346  0.34593795    -0.11700
C161        C  0.24933818  0.99877599  0.36875619    -0.01500
C162        C  0.22722314  0.47816223  0.34491295    -0.10600
C163        C  0.25054430  0.99917688  0.22675778     0.05900
H164        H  0.29051810  0.03516081  0.28345948     0.07800
H165        H  0.28933166  0.03537195  0.36371107     0.11300
H166        H  0.20948887  0.46215781  0.36187207     0.11500
H167        H  0.20971611  0.46270354  0.28150526     0.07800
C168        C  0.23837625  0.97441978  0.20289890    -0.11300
C169        C  0.23838628  0.97461249  0.15691185    -0.10600
C170        C  0.25073251  0.99956085  0.13359233    -0.01500
C171        C  0.26313326  0.52432496  0.15732150    -0.11700
C172        C  0.26295824  0.52413902  0.20332178    -0.10100
H173        H  0.22909506  0.95480848  0.21971172     0.07800
H174        H  0.22876938  0.95516008  0.13964364     0.11500
H175        H  0.27280213  0.54390944  0.14036666     0.11300
H176        H  0.27214503  0.54361366  0.22045384     0.07800
C177        C  0.15283813  0.12806194  0.49118263    -0.11300
C178        C  0.12804028  0.12747298  0.50021135     0.05900
C179        C  0.12852310  0.15217165  0.50952341    -0.10000
C180        C  0.15335258  0.17706571  0.50957718    -0.11700
C181        C  0.17824097  0.17770819  0.50082687    -0.01500
C182        C  0.17773436  0.15292466  0.49176418    -0.10600
C183        C  0.10169855  0.10116718  0.50001953     0.05900
H184        H  0.10961417  0.15223387  0.51621280     0.07800
H185        H  0.15305362  0.19579843  0.51664773     0.11300
H186        H  0.19655024  0.15275451  0.48477888     0.11500
H187        H  0.15297001  0.10922682  0.48421666     0.07800
C188        C  0.09494789  0.08262659  0.46495882    -0.11300
C189        C  0.06982869  0.05803063  0.46446261    -0.10600
C190        C  0.05134099  0.05129714  0.49948392    -0.01500
C191        C  0.05825025  0.06964960  0.53481627    -0.11700
C192        C  0.08307881  0.09451555  0.53485019    -0.10100
H193        H  0.10889845  0.08742447  0.43758677     0.07800
H194        H  0.06476452  0.04421204  0.43677452     0.11500
H195        H  0.04437942  0.06467930  0.56234609     0.11300
H196        H  0.08795821  0.10838735  0.56241882     0.07800
C197        C  0.40420404  0.41706946  0.46297153    -0.11300
C198        C  0.39720749  0.39844659  0.49810722     0.05900
C199        C  0.41547409  0.40519570  0.53384061    -0.10000
C200        C  0.44024434  0.43011975  0.53446438    -0.11700
C201        C  0.44738035  0.44850423  0.49904549    -0.01500
C202        C  0.42919544  0.44179581  0.46328253    -0.10600
C203        C  0.37099590  0.37196738  0.49744364     0.05900
H204        H  0.41040582  0.39132364  0.56154301     0.07800
H205        H  0.45391938  0.43509200  0.56251631     0.11300
H206        H  0.43445292  0.45568931  0.43556639     0.11500
H207        H  0.39056948  0.41224173  0.43490210     0.07800
C208        C  0.34629268  0.37100019  0.48558667    -0.11300
C209        C  0.32150254  0.34603554  0.48570863    -0.10600
C210        C  0.32100532  0.32151853  0.49716788    -0.01500
C211        C  0.34579834  0.32247642  0.50846607    -0.11700
C212        C  0.37051730  0.34747640  0.50885621    -0.10100
H213        H  0.34610795  0.38963704  0.47693732     0.07800
H214        H  0.30273952  0.34592389  0.47671643     0.11500
H215        H  0.34606931  0.30393616  0.51748280     0.11300
H216        H  0.38933909  0.34765124  0.51767789     0.07800
C217        C  0.09364788  0.00982830  0.53521117    -0.11300
C218        C  0.10047319  0.99849362  0.49967062     0.05900
C219        C  0.08216654  0.48745021  0.46396893    -0.10000
C220        C  0.05757438  0.48803223  0.46361460    -0.11700
C221        C  0.05071847  0.99922106  0.49928631    -0.01500
C222        C  0.06884965  0.00997617  0.53518380    -0.10600
C223        C  0.12677291  0.99843374  0.49974251     0.05900
H224        H  0.08713463  0.47881778  0.43606365     0.07800
H225        H  0.04386482  0.47979716  0.43553760     0.11300
H226        H  0.06375296  0.01847979  0.56311804     0.11500
H227        H  0.10736585  0.01824396  0.56324265     0.07800
C228        C  0.15143315  0.02250062  0.50996440    -0.11300
C229        C  0.17635144  0.02257649  0.50992211    -0.10600
C230        C  0.17702649  0.99847526  0.50023061    -0.01500
C231        C  0.15228734  0.47433409  0.49026569    -0.11700
C232        C  0.12739821  0.47437381  0.48970399    -0.10100
H233        H  0.15143934  0.04134474  0.51747318     0.07800
H234        H  0.19506847  0.04146988  0.51780951     0.11500
H235        H  0.15218835  0.45547216  0.48256761     0.11300
H236        H  0.10857256  0.45553036  0.48200617     0.07800
C237        C  0.34689462  0.47584312  0.51040029    -0.11300
C238        C  0.37144031  0.00017317  0.50097281     0.05900
C239        C  0.37059755  0.02423119  0.49162339    -0.10000
C240        C  0.34560752  0.02402268  0.49205581    -0.11700
C241        C  0.32096825  0.99964503  0.50124900    -0.01500
C242        C  0.32184830  0.47552709  0.51024604    -0.10600
C243        C  0.39787418  0.00042749  0.50082691     0.05900
H244        H  0.38933671  0.04325960  0.48452403     0.07800
H245        H  0.34556387  0.04290655  0.48487606     0.11300
H246        H  0.30320698  0.45644674  0.51747156     0.11500
H247        H  0.34708404  0.45700155  0.51735121     0.07800
C248        C  0.40509121  0.98908142  0.53619551    -0.11300
C249        C  0.43008735  0.98932915  0.53605999    -0.10600
C250        C  0.44797315  0.00043798  0.50017424    -0.01500
C251        C  0.44071345  0.51164630  0.46470474    -0.11700
C252        C  0.41596436  0.51188825  0.46521858    -0.10100
H253        H  0.39152641  0.98034881  0.56414321     0.07800
H254        H  0.43548873  0.98077929  0.56383091     0.11500
H255        H  0.45419809  0.52010386  0.43660907     0.11300
H256        H  0.41068624  0.52055396  0.43746422     0.07800
C257        C  0.15281933  0.13034054  0.01508268    -0.11300
C258        C  0.12930754  0.12833004  0.99487819     0.05900
C259        C  0.13097162  0.15175683  0.97509563    -0.10000
C260        C  0.15562101  0.17689879  0.97621101    -0.11700
C261        C  0.17917687  0.17888225  0.99626507    -0.01500
C262        C  0.17760714  0.15531131  0.01534761    -0.10600
C263        C  0.10299251  0.10195256  0.99523097     0.05900
H264        H  0.11304695  0.15070050  0.95954183     0.07800
H265        H  0.15633994  0.19473347  0.96104681     0.11300
H266        H  0.19544500  0.15629855  0.03111527     0.11500
H267        H  0.15203186  0.11249854  0.03035985     0.07800
C268        C  0.09271150  0.08758441  0.03489256    -0.11300
C269        C  0.06769961  0.06288583  0.03555507    -0.10600
C270        C  0.05299469  0.05172315  0.99642257    -0.01500
C271        C  0.06313866  0.06602672  0.95674459    -0.11700
C272        C  0.08788252  0.09109139  0.95618925    -0.10100
H273        H  0.10378691  0.09578244  0.06548221     0.07800
H274        H  0.05970115  0.05253930  0.06664282     0.11500
H275        H  0.05180083  0.05782522  0.92636204     0.11300
H276        H  0.09541994  0.10184216  0.92523972     0.07800
C277        C  0.41670326  0.40727623  0.03680512    -0.11300
C278        C  0.39819295  0.39974262  0.00128077     0.05900
C279        C  0.40507956  0.41745224  0.96488569    -0.10000
C280        C  0.43016899  0.44206937  0.96379593    -0.11700
C281        C  0.44855596  0.44964390  0.99942036    -0.01500
C282        C  0.44155959  0.43214906  0.03605218    -0.10600
C283        C  0.37185617  0.37337108  0.00197276     0.05900
H284        H  0.39127426  0.41196038  0.93691250     0.07800
H285        H  0.43536823  0.45514749  0.93503129     0.11300
H286        H  0.45543168  0.43774656  0.06395429     0.11500
H287        H  0.41175750  0.39406572  0.06536662     0.07800
C288        C  0.37128887  0.34889514  0.01382857    -0.11300
C289        C  0.34651337  0.32389807  0.01349991    -0.10600
C290        C  0.32176127  0.32295600  0.00191683    -0.01500
C291        C  0.32232077  0.34753510  0.99063333    -0.11700
C292        C  0.34715314  0.37246154  0.99035440    -0.10100
H293        H  0.39010858  0.34905380  0.02260621     0.07800
H294        H  0.34672610  0.30532178  0.02246694     0.11500
H295        H  0.30360088  0.34746806  0.98149046     0.11300
H296        H  0.34704615  0.39110112  0.98142342     0.07800
C297        C  0.15150773  0.02111535  0.01615132    -0.11300
C298        C  0.12757226  0.49807958  0.00034677     0.05900
C299        C  0.12909041  0.47538959  0.98474559    -0.10000
C300        C  0.15414086  0.47565857  0.98528079    -0.11700
C301        C  0.17818438  0.99883612  0.00065077    -0.01500
C302        C  0.17664132  0.02159943  0.01592815    -0.10600
C303        C  0.10113994  0.49787737  0.00009834     0.05900
H304        H  0.11082649  0.45735323  0.97265198     0.07800
H305        H  0.15476295  0.45785855  0.97320495     0.11300
H306        H  0.19481777  0.03967630  0.02812112     0.11500
H307        H  0.15080333  0.03890180  0.02810070     0.07800
C308        C  0.09217440  0.00508422  0.03818037    -0.11300
C309        C  0.06751926  0.00549944  0.03783637    -0.10600
C310        C  0.05182733  0.99941707  0.99913895    -0.01500
C311        C  0.06051589  0.49186535  0.96117395    -0.11700
C312        C  0.08494418  0.49091481  0.96171725    -0.10100
H313        H  0.10412266  0.01008240  0.06831928     0.07800
H314        H  0.06057594  0.01041052  0.06780797     0.11500
H315        H  0.04837444  0.48674984  0.93122816     0.11300
H316        H  0.09149758  0.48530193  0.93198819     0.07800
C317        C  0.34903005  0.47787838  0.01599029    -0.11300
C318        C  0.37302537  0.00109158  0.00105730     0.05900
C319        C  0.37165430  0.02410985  0.98640027    -0.10000
C320        C  0.34670079  0.02401173  0.98693002    -0.11700
C321        C  0.32255950  0.50066783  0.00130597    -0.01500
C322        C  0.32394606  0.47755857  0.01570113    -0.10600
C323        C  0.39941832  0.00123279  0.00015229     0.05900
H324        H  0.38998030  0.04225633  0.97490762     0.07800
H325        H  0.34622945  0.04207102  0.97553286     0.11300
H326        H  0.30568282  0.45932174  0.02709353     0.11500
H327        H  0.34964802  0.45985374  0.02718741     0.07800
C328        C  0.40950497  0.99484152  0.03814097    -0.11300
C329        C  0.43468210  0.99537419  0.03718899    -0.10600
C330        C  0.44985596  0.00188046  0.99809475    -0.01500
C331        C  0.43950561  0.50769758  0.95994254    -0.11700
C332        C  0.41464820  0.50772963  0.96109015    -0.10100
H333        H  0.39804967  0.98977525  0.06859153     0.07800
H334        H  0.44227471  0.99051370  0.06677424     0.11500
H335        H  0.45049797  0.51184662  0.92917127     0.11300
H336        H  0.40701472  0.51231617  0.93128503     0.07800
C337        C  0.01026072  0.09439315  0.46281467    -0.11300
C338        C  0.99988786  0.10190384  0.49887567     0.05900
C339        C  0.48952617  0.08409972  0.53519772    -0.10000
C340        C  0.48963968  0.05929660  0.53552275    -0.11700
C341        C  0.99981901  0.05175446  0.49934013    -0.01500
C342        C  0.01008224  0.06943330  0.46295479    -0.10600
C343        C  0.99983868  0.12823119  0.49867605     0.05900
H344        H  0.48168767  0.08956695  0.56357257     0.07800
H345        H  0.48181752  0.04594780  0.56397936     0.11300
H346        H  0.01785383  0.06380950  0.43466777     0.11500
H347        H  0.01811656  0.10765442  0.43427279     0.07800
C348        C  0.02330746  0.15267029  0.48563757    -0.11300
C349        C  0.02338497  0.17759609  0.48628956    -0.10600
C350        C  0.99985452  0.17845921  0.49939791    -0.01500
C351        C  0.47628812  0.15394063  0.51193073    -0.11700
C352        C  0.47634442  0.12910168  0.51184731    -0.10100
H353        H  0.04173742  0.15254213  0.47562953     0.07800
H354        H  0.04179398  0.19615650  0.47626745     0.11500
H355        H  0.45786691  0.15398662  0.52222867     0.11300
H356        H  0.45791266  0.11048819  0.52164974     0.07800
C357        C  0.47463322  0.34668681  0.49040960    -0.11300
C358        C  0.99862809  0.37139596  0.50076041     0.05900
C359        C  0.02275815  0.37088030  0.51134314    -0.10000
C360        C  0.02296487  0.34610466  0.51121577    -0.11700
C361        C  0.99892818  0.32131564  0.50111561    -0.01500
C362        C  0.47472271  0.32184367  0.49089484    -0.10600
C363        C  0.99854055  0.39768416  0.50045131     0.05900
H364        H  0.04156072  0.38972720  0.51911622     0.07800
H365        H  0.04190780  0.34634120  0.51930519     0.11300
H366        H  0.45590316  0.30308464  0.48287604     0.11500
H367        H  0.45573398  0.34658301  0.48245184     0.07800
C368        C  0.48729492  0.40467317  0.46460728    -0.11300
C369        C  0.48766659  0.42972847  0.46401960    -0.10600
C370        C  0.99884265  0.44794376  0.49960666    -0.01500
C371        C  0.00978956  0.44084240  0.53565745    -0.11700
C372        C  0.00986249  0.41601979  0.53591327    -0.10100
H373        H  0.47865972  0.39094399  0.43674915     0.07800
H374        H  0.47928350  0.43497557  0.43582867     0.11500
H375        H  0.01828452  0.45457110  0.56354668     0.11300
H376        H  0.01842474  0.41094753  0.56406253     0.07800
C377        C  0.47742745  0.24253645  0.79832222    -0.11300
C378        C  0.00195268  0.25091281  0.77505699     0.05900
C379        C  0.02651799  0.25990911  0.79904278    -0.10000
C380        C  0.02651163  0.26042493  0.84506039    -0.11700
C381        C  0.00190532  0.25169418  0.86816832    -0.01500
C382        C  0.47738415  0.24279423  0.84427249    -0.10600
C383        C  0.00184063  0.25033428  0.72605115     0.05900
H384        H  0.04572775  0.26612988  0.78232464     0.07800
H385        H  0.04572914  0.26728032  0.86253460     0.11300
H386        H  0.45810030  0.23613573  0.86107471     0.11500
H387        H  0.45822528  0.23605749  0.78104947     0.07800
C388        C  0.47934347  0.22950499  0.70280806    -0.11300
C389        C  0.47884480  0.22942286  0.65681749    -0.10600
C390        C  0.00103563  0.24986002  0.63301368    -0.01500
C391        C  0.02375413  0.27037661  0.65602571    -0.11700
C392        C  0.02406029  0.27075263  0.70202351    -0.10100
H393        H  0.46215295  0.21309632  0.72011876     0.07800
H394        H  0.46122074  0.21316688  0.63985257     0.11500
H395        H  0.04106085  0.28649060  0.63843596     0.11300
H396        H  0.04151136  0.28736427  0.71869626     0.13800
C397        C  0.02168516  0.26885527  0.20300677    -0.11300
C398        C  0.99830366  0.24945631  0.22611299     0.05900
C399        C  0.47524617  0.23016565  0.20199362    -0.10000
C400        C  0.47561370  0.23026384  0.15598285    -0.11700
C401        C  0.99916130  0.24940311  0.13309940    -0.01500
C402        C  0.02218167  0.26868758  0.15707616    -0.10600
C403        C  0.99815792  0.24926422  0.27509901     0.05900
H404        H  0.45704925  0.21466475  0.21862573     0.07800
H405        H  0.45760220  0.21507740  0.13832835     0.11300
H406        H  0.04049709  0.28391699  0.14030808     0.11500
H407        H  0.03958209  0.28441428  0.22037848     0.07800
C408        C  0.02222864  0.25573205  0.29888221    -0.11300
C409        C  0.02235383  0.25601767  0.34481421    -0.10600
C410        C  0.99832896  0.24949002  0.36816160    -0.01500
C411        C  0.47413400  0.24265110  0.34457866    -0.11700
C412        C  0.47408447  0.24269376  0.29854616    -0.10100
H413        H  0.04097931  0.26027856  0.28203783     0.07800
H414        H  0.04125141  0.26107447  0.36205811     0.11500
H415        H  0.45532103  0.23763435  0.36168975     0.11300
H416        H  0.45527773  0.23800188  0.28137441     0.07800
C417        C  0.48059957  0.13094707  0.98112732    -0.11300
C418        C  0.00362564  0.12995199  0.99699483     0.05900
C419        C  0.02615811  0.15395124  0.01370773    -0.10000
C420        C  0.02575748  0.17866036  0.01416795    -0.11700
C421        C  0.50255833  0.17962190  0.99880791    -0.01500
C422        C  0.47994761  0.15548950  0.98243292    -0.10600
C423        C  0.00390397  0.10378631  0.99647548     0.05900
H424        H  0.04415215  0.15359911  0.02596426     0.07800
H425        H  0.04344489  0.19692826  0.02705661     0.11300
H426        H  0.46185348  0.15564669  0.97020707     0.11500
H427        H  0.46294907  0.11259837  0.96832854     0.07800
C428        C  0.49858793  0.08880032  0.95724305    -0.11300
C429        C  0.49824132  0.06375089  0.95693801    -0.10600
C430        C  0.00230194  0.05293221  0.99609327    -0.01500
C431        C  0.00791476  0.06799365  0.03522524    -0.11700
C432        C  0.00895509  0.09338921  0.03535174    -0.10100
H433        H  0.49498911  0.09665128  0.92681572     0.07800
H434        H  0.49473959  0.05275561  0.92622875     0.11500
H435        H  0.01145058  0.06003006  0.06558233     0.11300
H436        H  0.01309866  0.10465213  0.06593839     0.07800
C437        C  0.00937682  0.41594771  0.03791611    -0.11300
C438        C  0.49853461  0.39766644  0.00226877     0.05900
C439        C  0.48814392  0.40496897  0.96560866    -0.10000
C440        C  0.48893121  0.43023435  0.96439019    -0.11700
C441        C  0.99976335  0.44843451  0.00004571    -0.01500
C442        C  0.00978719  0.44101968  0.03693703    -0.10600
C443        C  0.49851337  0.37126964  0.00299495     0.05900
H444        H  0.47990457  0.39134857  0.93755434     0.07800
H445        H  0.48114122  0.43565889  0.93563510     0.11300
H446        H  0.01783030  0.45463660  0.06502167     0.11500
H447        H  0.01723142  0.41067370  0.06675031     0.07800
C448        C  0.02215698  0.37050820  0.01619829    -0.11300
C449        C  0.02249794  0.34580100  0.01571684    -0.10600
C450        C  0.49907249  0.32127131  0.00258782    -0.01500
C451        C  0.47526311  0.32195339  0.99005569    -0.11700
C452        C  0.47505630  0.34675766  0.98994815    -0.10100
H453        H  0.04057413  0.38915265  0.02608926     0.07800
H454        H  0.04109954  0.34589393  0.02576131     0.11500
H455        H  0.45690984  0.30337784  0.97976744     0.11300
H456        H  0.45649312  0.34677224  0.97998685     0.07800
O457        O  0.47706294  0.73742017  0.06280881    -0.74900
O458        O  0.47849766  0.73965811  0.93693344    -0.74900
O459        O  0.47871666  0.70489922  0.99852517    -0.75000
O460        O  0.47694810  0.77224572  0.00079973    -0.75000
O461        O  0.02278492  0.79590164  0.00197536    -0.74900
O462        O  0.02452735  0.72857530  0.00160872    -0.74900
O463        O  0.02432649  0.76278014  0.93849688    -0.74900
O464        O  0.02287515  0.76176432  0.06458222    -0.75000
Ni465      Ni  0.47618228  0.73770935  0.99973842     1.25400
Ni466      Ni  0.02526238  0.76308934  0.00169031     1.25400
C467        C  0.99971611  0.74947258  0.08448767     0.87300
C468        C  0.00160641  0.75143217  0.91688035     0.87200
C469        C  0.50191046  0.70562174  0.99973790     0.87300
C470        C  0.49960500  0.79520531  0.00174567     0.87400
O471        O  0.02266149  0.72748708  0.49970765    -0.74900
O472        O  0.02214965  0.79543655  0.50060972    -0.74900
O473        O  0.02314523  0.76161908  0.56319045    -0.75000
O474        O  0.02174361  0.76134480  0.43728012    -0.75000
O475        O  0.47590169  0.73842914  0.43798889    -0.74900
O476        O  0.47729034  0.73818005  0.56411200    -0.74900
O477        O  0.47630883  0.77230777  0.50140048    -0.74900
O478        O  0.47681387  0.70441831  0.50065731    -0.75000
Ni479      Ni  0.02405221  0.76229866  0.50017709     1.25400
Ni480      Ni  0.47494638  0.73752720  0.50108681     1.25400
C481        C  0.99979553  0.70473230  0.49994561     0.87300
C482        C  0.99913827  0.79508912  0.50106820     0.87200
C483        C  0.00045611  0.74986729  0.58442779     0.87300
C484        C  0.99863805  0.74978694  0.41682173     0.87400
C485        C  0.47536797  0.97577787  0.99811346     0.01800
C486        C  0.00029245  0.97518451  0.99901846     0.01800
C487        C  0.02574375  0.50007554  0.99884032     0.01800
C488        C  0.02633226  0.52552540  0.99729604     0.01800
C489        C  0.00147773  0.52611675  0.99602280     0.01800
C490        C  0.47598756  0.50127522  0.99666045     0.01800
C491        C  0.47401882  0.97482242  0.49932292     0.01800
C492        C  0.99908837  0.97454514  0.49921768     0.01800
C493        C  0.02441770  0.49958703  0.49916014     0.01800
C494        C  0.02470737  0.52493749  0.49927237     0.01800
C495        C  0.99961756  0.52518786  0.49946013     0.01800
C496        C  0.47430248  0.50015046  0.49960974     0.01800
O497        O  0.23900512  0.97686775  0.06389684    -0.74900
O498        O  0.23934035  0.97712789  0.93790491    -0.74900
O499        O  0.27350744  0.97738032  0.00172009    -0.75000
O500        O  0.20484561  0.97651169  0.00006364    -0.75000
O501        O  0.22726965  0.52231217  0.00165318    -0.74900
O502        O  0.29599618  0.52318364  0.00044931    -0.74900
O503        O  0.26129399  0.52291382  0.93800296    -0.74900
O504        O  0.26206956  0.52265585  0.06408885    -0.75000
Ni505      Ni  0.23838527  0.97535399  0.00089054     1.25400
Ni506      Ni  0.26245224  0.52440434  0.00105289     1.25400
C507        C  0.25060428  0.49971204  0.08484600     0.87300
C508        C  0.25026535  0.50005178  0.91712007     0.87200
C509        C  0.29608052  0.00040300  0.00116097     0.87300
C510        C  0.20471643  0.99925064  0.00079406     0.87400
O511        O  0.23813379  0.97626290  0.56419608    -0.74900
O512        O  0.23717036  0.97589669  0.43809600    -0.74900
O513        O  0.27190878  0.97637679  0.50108983    -0.75000
O514        O  0.20339014  0.97577114  0.50116161    -0.75000
O515        O  0.22603822  0.52157858  0.50002984    -0.74900
O516        O  0.29450107  0.52218604  0.50154321    -0.74900
O517        O  0.26063784  0.52173801  0.43783002    -0.74900
O518        O  0.26000878  0.52207500  0.56377725    -0.75000
Ni519      Ni  0.23684019  0.97443615  0.50116170     1.25400
Ni520      Ni  0.26108410  0.52351832  0.50078501     1.25400
C521        C  0.24911482  0.49923424  0.58476015     0.87300
C522        C  0.24898239  0.49878596  0.41723466     0.87200
C523        C  0.29451418  0.49938211  0.50132852     0.87300
C524        C  0.20341610  0.49859833  0.50047893     0.87400
O525        O  0.26113855  0.73942303  0.06317420    -0.74900
O526        O  0.26257997  0.73952171  0.93718517    -0.74900
O527        O  0.29593372  0.77385606  0.00131778    -0.75000
O528        O  0.22808564  0.70534472  0.99951896    -0.75000
O529        O  0.20484408  0.72795973  0.99623492    -0.74900
O530        O  0.27271079  0.79650145  0.00030791    -0.74900
O531        O  0.24025755  0.76309890  0.93557717    -0.74900
O532        O  0.23752569  0.76166509  0.06154786    -0.75000
Ni533      Ni  0.26278903  0.73876172  0.00033026     1.25400
Ni534      Ni  0.23798143  0.76308779  0.99840370     1.25400
C535        C  0.24899354  0.75040142  0.08318227     0.87300
C536        C  0.25172528  0.75141948  0.91566034     0.87200
C537        C  0.29554241  0.79649143  0.00121616     0.87300
C538        C  0.20528309  0.70535206  0.99735574     0.87400
O539        O  0.22733142  0.70411691  0.49951301    -0.74900
O540        O  0.29520337  0.77253155  0.49911555    -0.74900
O541        O  0.26167096  0.73854568  0.56240067    -0.75000
O542        O  0.26101046  0.73834601  0.43626414    -0.75000
O543        O  0.23657131  0.75975772  0.43637821    -0.74900
O544        O  0.23934733  0.76206760  0.56229122    -0.74900
O545        O  0.27193323  0.79511921  0.49708579    -0.74900
O546        O  0.20410874  0.72673177  0.50143654    -0.75000
Ni547      Ni  0.26211327  0.73755376  0.49933282     1.25400
Ni548      Ni  0.23716675  0.76172083  0.49931383     1.25400
C549        C  0.20449918  0.70411587  0.50066823     0.87300
C550        C  0.29477948  0.79512223  0.49774292     0.87200
C551        C  0.25085028  0.75058971  0.58320122     0.87300
C552        C  0.24857873  0.74894439  0.41553194     0.87400
C553        C  0.25489368  0.77445076  0.79777847    -0.11300
C554        C  0.25249268  0.75182113  0.77419367     0.05900
C555        C  0.25007474  0.72912959  0.79794178    -0.10000
C556        C  0.25030926  0.72919646  0.84395418    -0.11700
C557        C  0.25231238  0.75165043  0.86719003    -0.01500
C558        C  0.25448753  0.77421695  0.84376092    -0.10600
C559        C  0.25238821  0.75182595  0.72513765     0.05900
H560        H  0.24758539  0.71109458  0.78104310     0.07800
H561        H  0.24828540  0.71142150  0.86139906     0.11300
H562        H  0.25630690  0.79188056  0.86106772     0.11500
H563        H  0.25737340  0.79251809  0.78078008     0.07800
C564        C  0.24017042  0.76455122  0.70136374    -0.11300
C565        C  0.23987421  0.76434117  0.65536270    -0.10600
C566        C  0.25159222  0.75122161  0.63195007    -0.01500
C567        C  0.26391051  0.73860743  0.65559417    -0.11700
C568        C  0.26438424  0.73898231  0.70158904    -0.10100
H569        H  0.23033938  0.77426936  0.71823367     0.07800
H570        H  0.23020991  0.77425881  0.63816314     0.11500
H571        H  0.27325876  0.72844874  0.63857415     0.11300
H572        H  0.27446540  0.72944770  0.71863937     0.07800
C573        C  0.24032346  0.76645834  0.20117943    -0.11300
C574        C  0.24795351  0.74971901  0.22494330     0.05900
C575        C  0.25552511  0.73299635  0.20151641    -0.10000
C576        C  0.25583217  0.73325587  0.15557699    -0.11700
C577        C  0.24831191  0.75003832  0.13186669    -0.01500
C578        C  0.24038840  0.76652408  0.15513208    -0.10600
C579        C  0.24812380  0.74966717  0.27391285     0.05900
H580        H  0.26096012  0.71942935  0.21867618     0.07800
H581        H  0.26178988  0.72012131  0.13861785     0.11300
H582        H  0.23461309  0.77978114  0.13777204     0.11500
H583        H  0.23473622  0.77986784  0.21814084     0.07800
C584        C  0.26857599  0.74733919  0.29736722    -0.11300
C585        C  0.26850680  0.74675246  0.34333656    -0.10600
C586        C  0.24825457  0.74892745  0.36692351    -0.01500
C587        C  0.22794564  0.75150980  0.34366403    -0.11700
C588        C  0.22777776  0.75171068  0.29765065    -0.10100
H589        H  0.28487430  0.74628397  0.28021223     0.07800
H590        H  0.28459677  0.74506724  0.36044790     0.11500
H591        H  0.21197136  0.75303705  0.36105719     0.11300
H592        H  0.21147542  0.75307902  0.28069219     0.07800
C593        C  0.25098446  0.52195043  0.70242020    -0.11300
C594        C  0.24961862  0.49979811  0.72634085     0.05900
C595        C  0.24807673  0.97746028  0.70303810    -0.10000
C596        C  0.24766196  0.97717479  0.65705567    -0.11700
C597        C  0.24924590  0.49941031  0.63333787    -0.01500
C598        C  0.25102415  0.52184924  0.65642443    -0.10600
C599        C  0.24976116  0.49994320  0.77532402     0.05900
H600        H  0.24754427  0.96030291  0.72030146     0.07800
H601        H  0.24655546  0.95973914  0.64003027     0.11300
H602        H  0.25201454  0.53915212  0.63889440     0.11500
H603        H  0.25166834  0.53924850  0.71920521     0.07800
C604        C  0.26573263  0.52449448  0.79880207    -0.11300
C605        C  0.26580171  0.52457698  0.84481125    -0.10600
C606        C  0.25010514  0.50007286  0.86841673    -0.01500
C607        C  0.23421846  0.97552640  0.84503451    -0.11700
C608        C  0.23393733  0.97548231  0.79906379    -0.10100
H609        H  0.27853024  0.54363125  0.78165934     0.07800
H610        H  0.27839203  0.54380560  0.86188382     0.11500
H611        H  0.22174587  0.95633089  0.86225958     0.11300
H612        H  0.22099900  0.95629043  0.78214728     0.07800
C613        C  0.22748486  0.97841652  0.29890565    -0.11300
C614        C  0.25017195  0.49896307  0.27578942     0.05900
C615        C  0.27245342  0.51936676  0.29997469    -0.10000
C616        C  0.27189073  0.51943328  0.34593788    -0.11700
C617        C  0.24933826  0.49877591  0.36875612    -0.01500
C618        C  0.22722315  0.97816223  0.34491296    -0.10600
C619        C  0.25054428  0.49917684  0.22675778     0.05900
H620        H  0.29051823  0.53516054  0.28345942     0.07800
H621        H  0.28933187  0.53537169  0.36371096     0.11300
H622        H  0.20948890  0.96215769  0.36187198     0.11500
H623        H  0.20971624  0.96270347  0.28150523     0.07800
C624        C  0.23837604  0.47441976  0.20289886    -0.11300
C625        C  0.23838609  0.47461248  0.15691181    -0.10600
C626        C  0.25073253  0.49956085  0.13359234    -0.01500
C627        C  0.26313308  0.02432497  0.15732145    -0.11700
C628        C  0.26295807  0.02413904  0.20332173    -0.10100
H629        H  0.22909472  0.45480845  0.21971161     0.07800
H630        H  0.22876905  0.45516007  0.13964358     0.11500
H631        H  0.27280177  0.04390943  0.14036655     0.11300
H632        H  0.27214472  0.04361368  0.22045382     0.07800
C633        C  0.15283806  0.62806191  0.49118270    -0.11300
C634        C  0.12804024  0.62747296  0.50021151     0.05900
C635        C  0.12852309  0.65217161  0.50952395    -0.10000
C636        C  0.15335258  0.67706566  0.50957778    -0.11700
C637        C  0.17824093  0.67770813  0.50082726    -0.01500
C638        C  0.17773433  0.65292460  0.49176446    -0.10600
C639        C  0.10169848  0.60116718  0.50001942     0.05900
H640        H  0.10961419  0.65223382  0.51621346     0.07800
H641        H  0.15305366  0.69579838  0.51664848     0.11300
H642        H  0.19655016  0.65275444  0.48477919     0.11500
H643        H  0.15296992  0.60922678  0.48421653     0.07800
C644        C  0.09494788  0.58262677  0.46495845    -0.11300
C645        C  0.06982869  0.55803077  0.46446202    -0.10600
C646        C  0.05134094  0.55129710  0.49948332    -0.01500
C647        C  0.05825013  0.56964940  0.53481586    -0.11700
C648        C  0.08307865  0.59451539  0.53485000    -0.10100
H649        H  0.10889847  0.58742480  0.43758648     0.07800
H650        H  0.06476459  0.54421230  0.43677384     0.11500
H651        H  0.04437926  0.56467892  0.56234570     0.11300
H652        H  0.08795797  0.60838709  0.56241878     0.07800
C653        C  0.40420403  0.91706951  0.46297176    -0.11300
C654        C  0.39720759  0.89844648  0.49810719     0.05900
C655        C  0.41547417  0.90519552  0.53384063    -0.10000
C656        C  0.44024433  0.93011970  0.53446459    -0.11700
C657        C  0.44738025  0.94850428  0.49904587    -0.01500
C658        C  0.42919532  0.94179593  0.46328296    -0.10600
C659        C  0.37099604  0.87196724  0.49744346     0.05900
H660        H  0.41040600  0.89132339  0.56154278     0.07800
H661        H  0.45391935  0.93509188  0.56251646     0.11300
H662        H  0.43445273  0.95568953  0.43556692     0.11500
H663        H  0.39056945  0.91224184  0.43490230     0.07800
C664        C  0.34629279  0.87100014  0.48558696    -0.11300
C665        C  0.32150265  0.84603547  0.48570896    -0.10600
C666        C  0.32100544  0.82151842  0.49716785    -0.01500
C667        C  0.34579849  0.82247627  0.50846567    -0.11700
C668        C  0.37051745  0.84747623  0.50885560    -0.10100
H669        H  0.34610805  0.88963701  0.47693802     0.07800
H670        H  0.30273957  0.84592385  0.47671708     0.11500
H671        H  0.34606946  0.80393599  0.51748220     0.11300
H672        H  0.38933931  0.84765104  0.51767694     0.07800
C673        C  0.09364785  0.50982825  0.53521078    -0.11300
C674        C  0.10047320  0.49849354  0.49967030     0.05900
C675        C  0.08216650  0.98745034  0.46396927    -0.10000
C676        C  0.05757433  0.98803232  0.46361510    -0.11700
C677        C  0.05071851  0.49922105  0.49928570    -0.01500
C678        C  0.06884961  0.50997614  0.53518329    -0.10600
C679        C  0.12677290  0.49843360  0.49974232     0.05900
H680        H  0.08713455  0.97881795  0.43606387     0.07800
H681        H  0.04386471  0.97979726  0.43553810     0.11300
H682        H  0.06375289  0.51847970  0.56311743     0.11500
H683        H  0.10736572  0.51824389  0.56324232     0.07800
C684        C  0.15143315  0.52250042  0.50996434    -0.11300
C685        C  0.17635144  0.52257630  0.50992216    -0.10600
C686        C  0.17702649  0.49847507  0.50023068    -0.01500
C687        C  0.15228735  0.97433428  0.49026550    -0.11700
C688        C  0.12739820  0.97437398  0.48970398    -0.10100
H689        H  0.15143933  0.54134458  0.51747318     0.07800
H690        H  0.19506844  0.54146967  0.51780961     0.11500
H691        H  0.15218836  0.95547242  0.48256729     0.11300
H692        H  0.10857259  0.95553056  0.48200622     0.07800
C693        C  0.34689469  0.97584336  0.51040187    -0.11300
C694        C  0.37144028  0.50017300  0.50097181     0.05900
C695        C  0.37059759  0.52423113  0.49162309    -0.10000
C696        C  0.34560762  0.52402271  0.49205577    -0.11700
C697        C  0.32096830  0.49964499  0.50124847    -0.01500
C698        C  0.32184833  0.97552727  0.51024741    -0.10600
C699        C  0.39787411  0.50042728  0.50082600     0.05900
H700        H  0.38933688  0.54325964  0.48452414     0.07800
H701        H  0.34556403  0.54290667  0.48487667     0.11300
H702        H  0.30320700  0.95644695  0.51747334     0.11500
H703        H  0.34708416  0.95700184  0.51735335     0.07800
C704        C  0.40509100  0.48908101  0.53619449    -0.11300
C705        C  0.43008716  0.48932878  0.53605905    -0.10600
C706        C  0.44797315  0.50043792  0.50017358    -0.01500
C707        C  0.44071334  0.01164613  0.46470518    -0.11700
C708        C  0.41596429  0.01188819  0.46521928    -0.10100
H709        H  0.39152609  0.48034822  0.56414196     0.07800
H710        H  0.43548841  0.48077870  0.56382988     0.11500
H711        H  0.45419779  0.02010340  0.43660947     0.11300
H712        H  0.41068610  0.02055380  0.43746473     0.07800
C713        C  0.15281933  0.63034054  0.01508244    -0.11300
C714        C  0.12930758  0.62833004  0.99487783     0.05900
C715        C  0.13097177  0.65175682  0.97509501    -0.10000
C716        C  0.15562119  0.67689878  0.97621045    -0.11700
C717        C  0.17917696  0.67888224  0.99626495    -0.01500
C718        C  0.17760714  0.65531129  0.01534758    -0.10600
C719        C  0.10299250  0.60195258  0.99523081     0.05900
H720        H  0.11304716  0.65070052  0.95954101     0.07800
H721        H  0.15634020  0.69473342  0.96104604     0.11300
H722        H  0.19544493  0.65629851  0.03111542     0.11500
H723        H  0.15203184  0.61249851  0.03035965     0.07800
C724        C  0.09271195  0.58758415  0.03489234    -0.11300
C725        C  0.06770014  0.56288547  0.03555504    -0.10600
C726        C  0.05299476  0.55172307  0.99642279    -0.01500
C727        C  0.06313825  0.56602693  0.95674492    -0.11700
C728        C  0.08788209  0.59109162  0.95618937    -0.10100
H729        H  0.10378763  0.59578198  0.06548182     0.07800
H730        H  0.05970209  0.55253872  0.06664275     0.11500
H731        H  0.05180006  0.55782568  0.92636261     0.11300
H732        H  0.09541910  0.60184254  0.92523991     0.07800
C733        C  0.41670333  0.90727631  0.03680465    -0.11300
C734        C  0.39819297  0.89974265  0.00128039     0.05900
C735        C  0.40507955  0.91745228  0.96488533    -0.10000
C736        C  0.43016890  0.94206945  0.96379563    -0.11700
C737        C  0.44855592  0.94964399  0.99941999    -0.01500
C738        C  0.44155961  0.93214913  0.03605176    -0.10600
C739        C  0.37185619  0.87337110  0.00197248     0.05900
H740        H  0.39127418  0.91196039  0.93691213     0.07800
H741        H  0.43536809  0.95514769  0.93503104     0.11300
H742        H  0.45543174  0.93774665  0.06395384     0.11500
H743        H  0.41175757  0.89406573  0.06536632     0.07800
C744        C  0.37128890  0.84889523  0.01382877    -0.11300
C745        C  0.34651341  0.82389815  0.01350029    -0.10600
C746        C  0.32176129  0.82295602  0.00191711    -0.01500
C747        C  0.32232077  0.84753506  0.99063324    -0.11700
C748        C  0.34715315  0.87246148  0.99035390    -0.10100
H749        H  0.39010858  0.84905393  0.02260657     0.07800
H750        H  0.34672619  0.80532191  0.02246749     0.11500
H751        H  0.30360089  0.84746797  0.98149031     0.11300
H752        H  0.34704613  0.89110099  0.98142251     0.07800
C753        C  0.15150790  0.52111519  0.01615205    -0.11300
C754        C  0.12757209  0.99807962  0.00034634     0.05900
C755        C  0.12909017  0.97538954  0.98474542    -0.10000
C756        C  0.15414062  0.97565847  0.98528084    -0.11700
C757        C  0.17818462  0.49883613  0.00065086    -0.01500
C758        C  0.17664150  0.52159931  0.01592876    -0.10600
C759        C  0.10113976  0.99787737  0.00009799     0.05900
H760        H  0.11082633  0.95735320  0.97265200     0.07800
H761        H  0.15476265  0.95785845  0.97320534     0.11300
H762        H  0.19481794  0.53967610  0.02812199     0.11500
H763        H  0.15080345  0.53890162  0.02810173     0.07800
C764        C  0.09217423  0.50508358  0.03818098    -0.11300
C765        C  0.06751908  0.50549880  0.03783700    -0.10600
C766        C  0.05182745  0.49941704  0.99913930    -0.01500
C767        C  0.06051541  0.99186472  0.96117393    -0.11700
C768        C  0.08494368  0.99091417  0.96171722    -0.10100
H769        H  0.10412224  0.51008124  0.06832014     0.07800
H770        H  0.06057550  0.51040935  0.06780876     0.11500
H771        H  0.04837368  0.98674870  0.93122833     0.11300
H772        H  0.09149684  0.98530078  0.93198839     0.07800
C773        C  0.34902951  0.97787779  0.01598866    -0.11300
C774        C  0.37302566  0.50109171  0.00105696     0.05900
C775        C  0.37165428  0.52410948  0.98639803    -0.10000
C776        C  0.34670077  0.52401136  0.98692801    -0.11700
C777        C  0.32255926  0.00066774  0.00130599    -0.01500
C778        C  0.32394556  0.97755803  0.01569941    -0.10600
C779        C  0.39941863  0.50123295  0.00015203     0.05900
H780        H  0.38998009  0.54225564  0.97490384     0.07800
H781        H  0.34622920  0.54207031  0.97552951     0.11300
H782        H  0.30568210  0.95932084  0.02709026     0.11500
H783        H  0.34964728  0.95985276  0.02718431     0.07800
C784        C  0.40950558  0.49484234  0.03814104    -0.11300
C785        C  0.43468267  0.49537496  0.03718911    -0.10600
C786        C  0.44985616  0.50188041  0.99809460    -0.01500
C787        C  0.43950569  0.00769833  0.95994303    -0.11700
C788        C  0.41464820  0.00773023  0.96109067    -0.10100
H789        H  0.39805052  0.48977661  0.06859183     0.07800
H790        H  0.44227554  0.49051501  0.06677464     0.11500
H791        H  0.45049826  0.01184795  0.92917191     0.11300
H792        H  0.40701492  0.01231725  0.93128590     0.07800
C793        C  0.01026086  0.59439330  0.46281470    -0.11300
C794        C  0.99988776  0.60190375  0.49887561     0.05900
C795        C  0.48952577  0.58409954  0.53519721    -0.10000
C796        C  0.48963938  0.55929643  0.53552221    -0.11700
C797        C  0.99981895  0.55175438  0.49933949    -0.01500
C798        C  0.01008248  0.56943350  0.46295447    -0.10600
C799        C  0.99983860  0.62823112  0.49867619     0.05900
H800        H  0.48168694  0.58956652  0.56357198     0.07800
H801        H  0.48181711  0.54594758  0.56397846     0.11300
H802        H  0.01785429  0.56380997  0.43466760     0.11500
H803        H  0.01811691  0.60765478  0.43427294     0.07800
C804        C  0.02330749  0.65267029  0.48563820    -0.11300
C805        C  0.02338500  0.67759611  0.48629028    -0.10600
C806        C  0.99985444  0.67845917  0.49939813    -0.01500
C807        C  0.47628812  0.65394076  0.51193064    -0.11700
C808        C  0.47634432  0.62910177  0.51184707    -0.10100
H809        H  0.04173752  0.65254217  0.47563054     0.07800
H810        H  0.04179411  0.69615657  0.47626863     0.11500
H811        H  0.45786686  0.65398677  0.52222861     0.11300
H812        H  0.45791255  0.61048834  0.52164919     0.07800
C813        C  0.47463323  0.84668695  0.49041028    -0.11300
C814        C  0.99862821  0.87139613  0.50076007     0.05900
C815        C  0.02275841  0.87088056  0.51134217    -0.10000
C816        C  0.02296513  0.84610490  0.51121485    -0.11700
C817        C  0.99892829  0.82131576  0.50111557    -0.01500
C818        C  0.47472279  0.82184383  0.49089570    -0.10600
C819        C  0.99854062  0.89768431  0.50045122     0.05900
H820        H  0.04156100  0.88972749  0.51911478     0.07800
H821        H  0.04190814  0.84634152  0.51930372     0.11300
H822        H  0.45590318  0.80308475  0.48287733     0.11500
H823        H  0.45573402  0.84658310  0.48245288     0.07800
C824        C  0.48729499  0.90467330  0.46460745    -0.11300
C825        C  0.48766656  0.92972854  0.46401989    -0.10600
C826        C  0.99884254  0.94794383  0.49960709    -0.01500
C827        C  0.00978956  0.94084243  0.53565771    -0.11700
C828        C  0.00986258  0.91601988  0.53591320    -0.10100
H829        H  0.47865983  0.89094413  0.43674925     0.07800
H830        H  0.47928348  0.93497567  0.43582893     0.11500
H831        H  0.01828456  0.95457111  0.56354695     0.11300
H832        H  0.01842500  0.91094762  0.56406243     0.07800
C833        C  0.47742718  0.74253618  0.79832253    -0.11300
C834        C  0.00195255  0.75091264  0.77505703     0.05900
C835        C  0.02651787  0.75990893  0.79904274    -0.10000
C836        C  0.02651158  0.76042485  0.84506035    -0.11700
C837        C  0.00190528  0.75169415  0.86816829    -0.01500
C838        C  0.47738391  0.74279404  0.84427280    -0.10600
C839        C  0.00184049  0.75033428  0.72605117     0.05900
H840        H  0.04572762  0.76612970  0.78232451     0.07800
H841        H  0.04572909  0.76728027  0.86253449     0.11300
H842        H  0.45810011  0.73613559  0.86107506     0.11500
H843        H  0.45822496  0.73605723  0.78104976     0.07800
C844        C  0.47934321  0.72950469  0.70280818    -0.11300
C845        C  0.47884458  0.72942267  0.65681759    -0.10600
C846        C  0.00103558  0.74986008  0.63301369    -0.01500
C847        C  0.02375399  0.77037679  0.65602574    -0.11700
C848        C  0.02406005  0.77075279  0.70202357    -0.10100
H849        H  0.46215274  0.71309590  0.72011882     0.07800
H850        H  0.46122062  0.71316665  0.63985251     0.11500
H851        H  0.04106062  0.78649076  0.63843605     0.11300
H852        H  0.04151108  0.78736453  0.71869638     0.13800
C853        C  0.02168547  0.76885527  0.20300682    -0.11300
C854        C  0.99830386  0.74945644  0.22611307     0.05900
C855        C  0.47524630  0.73016604  0.20199392    -0.10000
C856        C  0.47561373  0.73026415  0.15598317    -0.11700
C857        C  0.99916147  0.74940325  0.13309944    -0.01500
C858        C  0.02218193  0.76868759  0.15707619    -0.10600
C859        C  0.99815805  0.74926436  0.27509912     0.05900
H860        H  0.45704939  0.71466517  0.21862620     0.07800
H861        H  0.45760213  0.71507774  0.13832875     0.11300
H862        H  0.04049739  0.78391692  0.14030808     0.11500
H863        H  0.03958246  0.78441413  0.22037844     0.07800
C864        C  0.02222872  0.75573214  0.29888240    -0.11300
C865        C  0.02235392  0.75601781  0.34481437    -0.10600
C866        C  0.99832904  0.74949015  0.36816172    -0.01500
C867        C  0.47413432  0.74265151  0.34457887    -0.11700
C868        C  0.47408476  0.74269417  0.29854638    -0.10100
H869        H  0.04097944  0.76027859  0.28203803     0.07800
H870        H  0.04125147  0.76107461  0.36205827     0.11500
H871        H  0.45532133  0.73763463  0.36168996     0.11300
H872        H  0.45527806  0.73800226  0.28137469     0.07800
C873        C  0.48059910  0.63094674  0.98112801    -0.11300
C874        C  0.00362540  0.62995182  0.99699528     0.05900
C875        C  0.02615807  0.65395117  0.01370741    -0.10000
C876        C  0.02575757  0.67866034  0.01416751    -0.11700
C877        C  0.50255819  0.67962174  0.99880782    -0.01500
C878        C  0.47994725  0.65548924  0.98243358    -0.10600
C879        C  0.00390367  0.60378612  0.99647602     0.05900
H880        H  0.04415225  0.65359904  0.02596353     0.07800
H881        H  0.04344508  0.69692825  0.02705568     0.11300
H882        H  0.46185296  0.65564636  0.97020826     0.11500
H883        H  0.46294847  0.61259803  0.96832984     0.07800
C884        C  0.49858738  0.58879992  0.95724309    -0.11300
C885        C  0.49824097  0.56375058  0.95693802    -0.10600
C886        C  0.00230195  0.55293215  0.99609372    -0.01500
C887        C  0.00791471  0.56799355  0.03522572    -0.11700
C888        C  0.00895489  0.59338907  0.03535233    -0.10100
H889        H  0.49498819  0.59665069  0.92681588     0.07800
H890        H  0.49473899  0.55275516  0.92622880     0.11500
H891        H  0.01145060  0.56003000  0.06558274     0.11300
H892        H  0.01309844  0.60465193  0.06593883     0.07800
C893        C  0.00937650  0.91594771  0.03791633    -0.11300
C894        C  0.49853466  0.89766656  0.00226824     0.05900
C895        C  0.48814370  0.90496897  0.96560829    -0.10000
C896        C  0.48893086  0.93023431  0.96438988    -0.11700
C897        C  0.99976326  0.94843453  0.00004547    -0.01500
C898        C  0.00978690  0.94101970  0.03693703    -0.10600
C899        C  0.49851334  0.87126968  0.00299461     0.05900
H900        H  0.47990418  0.89134850  0.93755408     0.07800
H901        H  0.48114061  0.93565871  0.93563494     0.11300
H902        H  0.01782997  0.95463667  0.06502158     0.11500
H903        H  0.01723103  0.91067372  0.06675066     0.07800
C904        C  0.02215694  0.87050826  0.01619884    -0.11300
C905        C  0.02249792  0.84580104  0.01571727    -0.10600
C906        C  0.49907235  0.82127123  0.00258786    -0.01500
C907        C  0.47526314  0.82195341  0.99005485    -0.11700
C908        C  0.47505640  0.84675775  0.98994732    -0.10100
H909        H  0.04057391  0.88915256  0.02609004     0.07800
H910        H  0.04109948  0.84589399  0.02576187     0.11500
H911        H  0.45691007  0.80337801  0.97976602     0.11300
H912        H  0.45649325  0.84677239  0.97998547     0.07800
O913        O  0.97706274  0.23742005  0.06280873    -0.74900
O914        O  0.97849751  0.23965816  0.93693339    -0.74900
O915        O  0.97871651  0.20489921  0.99852494    -0.75000
O916        O  0.97694809  0.27224577  0.00079975    -0.75000
O917        O  0.52278506  0.29590176  0.00197511    -0.74900
O918        O  0.52452760  0.22857547  0.00160879    -0.74900
O919        O  0.52432681  0.26278032  0.93849679    -0.74900
O920        O  0.52287528  0.26176449  0.06458217    -0.75000
Ni921      Ni  0.97618212  0.23770934  0.99973834     1.25400
Ni922      Ni  0.52526261  0.26308951  0.00169024     1.25400
C923        C  0.49971622  0.24947264  0.08448754     0.87300
C924        C  0.50160674  0.25143238  0.91688019     0.87200
C925        C  0.00191033  0.20562174  0.99973782     0.87300
C926        C  0.99960503  0.29520534  0.00174575     0.87400
O927        O  0.52266160  0.22748704  0.49970763    -0.74900
O928        O  0.52214970  0.29543652  0.50060942    -0.74900
O929        O  0.52314544  0.26161919  0.56319021    -0.75000
O930        O  0.52174353  0.26134461  0.43727991    -0.75000
O931        O  0.97590152  0.23842897  0.43798878    -0.74900
O932        O  0.97729021  0.23817987  0.56411195    -0.74900
O933        O  0.97630865  0.27230754  0.50140031    -0.74900
O934        O  0.97681381  0.20441819  0.50065710    -0.75000
Ni935      Ni  0.52405229  0.26229863  0.50017688     1.25400
Ni936      Ni  0.97494625  0.23752702  0.50108670     1.25400
C937        C  0.49979562  0.20473227  0.49994562     0.87300
C938        C  0.49913831  0.29508907  0.50106786     0.87200
C939        C  0.50045636  0.24986743  0.58442764     0.87300
C940        C  0.49863793  0.24978662  0.41682160     0.87400
C941        C  0.97536804  0.47577784  0.99811388     0.01800
C942        C  0.50029257  0.47518446  0.99901860     0.01800
C943        C  0.52574368  0.00007568  0.99883963     0.01800
C944        C  0.52633213  0.02552552  0.99729566     0.01800
C945        C  0.50147756  0.02611679  0.99602262     0.01800
C946        C  0.97598750  0.00127533  0.99666035     0.01800
C947        C  0.97401881  0.47482235  0.49932182     0.01800
C948        C  0.49908851  0.47454514  0.49921763     0.01800
C949        C  0.52441770  0.99958706  0.49916116     0.01800
C950        C  0.52470740  0.02493753  0.49927340     0.01800
C951        C  0.49961761  0.02518790  0.49946137     0.01800
C952        C  0.97430243  0.00015052  0.49961015     0.01800
O953        O  0.73900521  0.47686776  0.06389693    -0.74900
O954        O  0.73934079  0.47712796  0.93790505    -0.74900
O955        O  0.77350761  0.47738028  0.00172042    -0.75000
O956        O  0.70484585  0.47651176  0.00006363    -0.75000
O957        O  0.72726956  0.02231216  0.00165320    -0.74900
O958        O  0.79599600  0.02318349  0.00044944    -0.74900
O959        O  0.76129388  0.02291363  0.93800307    -0.74900
O960        O  0.76206936  0.02265582  0.06408891    -0.75000
Ni961      Ni  0.73838549  0.47535402  0.00089067     1.25400
Ni962      Ni  0.76245208  0.02440423  0.00105297     1.25400
C963        C  0.75060406  0.99971205  0.08484610     0.87300
C964        C  0.75026515  0.00005160  0.91712017     0.87200
C965        C  0.79608071  0.50040294  0.00116132     0.87300
C966        C  0.70471672  0.49925074  0.00079421     0.87400
O967        O  0.73813407  0.47626303  0.56419633    -0.74900
O968        O  0.73717043  0.47589662  0.43809624    -0.74900
O969        O  0.77190886  0.47637681  0.50108993    -0.75000
O970        O  0.70339022  0.47577109  0.50116191    -0.75000
O971        O  0.72603820  0.02157864  0.50003003    -0.74900
O972        O  0.79450105  0.02218609  0.50154337    -0.74900
O973        O  0.76063776  0.02173800  0.43783015    -0.74900
O974        O  0.76000873  0.02207500  0.56377732    -0.75000
Ni975      Ni  0.73684030  0.47443615  0.50116195     1.25400
Ni976      Ni  0.76108405  0.02351834  0.50078515     1.25400
C977        C  0.74911480  0.99923422  0.58476016     0.87300
C978        C  0.74898222  0.99878597  0.41723475     0.87200
C979        C  0.79451413  0.99938214  0.50132872     0.87300
C980        C  0.70341607  0.99859841  0.50047899     0.87400
O981        O  0.76113848  0.23942326  0.06317413    -0.74900
O982        O  0.76257996  0.23952165  0.93718509    -0.74900
O983        O  0.79593368  0.27385619  0.00131752    -0.75000
O984        O  0.72808563  0.20534476  0.99951903    -0.75000
O985        O  0.70484408  0.22795978  0.99623465    -0.74900
O986        O  0.77271078  0.29650161  0.00030755    -0.74900
O987        O  0.74025765  0.26309896  0.93557682    -0.74900
O988        O  0.73752569  0.26166538  0.06154753    -0.75000
Ni989      Ni  0.76278900  0.23876181  0.00033020     1.25400
Ni990      Ni  0.73798144  0.26308793  0.99840335     1.25400
C991        C  0.74899350  0.25040172  0.08318207     0.87300
C992        C  0.75172533  0.25141944  0.91566013     0.87200
C993        C  0.79554238  0.29649157  0.00121575     0.87300
C994        C  0.70528308  0.20535210  0.99735568     0.87400
O995        O  0.72733148  0.20411700  0.49951259    -0.74900
O996        O  0.79520336  0.27253167  0.49911549    -0.74900
O997        O  0.76167098  0.23854569  0.56240036    -0.75000
O998        O  0.76101053  0.23834631  0.43626383    -0.75000
O999        O  0.73657124  0.25975789  0.43637817    -0.74900
O1000       O  0.73934731  0.26206756  0.56229110    -0.74900
O1001       O  0.77193316  0.29511927  0.49708580    -0.74900
O1002       O  0.70410873  0.22673179  0.50143646    -0.75000
Ni1003     Ni  0.76211332  0.23755389  0.49933253     1.25400
Ni1004     Ni  0.73716671  0.26172088  0.49931378     1.25400
C1005       C  0.70449923  0.20411592  0.50066796     0.87300
C1006       C  0.79477942  0.29512232  0.49774291     0.87200
C1007       C  0.75085026  0.25058965  0.58320100     0.87300
C1008       C  0.74857873  0.24894468  0.41553176     0.87400
C1009       C  0.75489406  0.27445064  0.79777812    -0.11300
C1010       C  0.75249263  0.25182082  0.77419340     0.05900
C1011       C  0.75007430  0.22912915  0.79794158    -0.10000
C1012       C  0.75030882  0.22919605  0.84395399    -0.11700
C1013       C  0.75231243  0.25165027  0.86718979    -0.01500
C1014       C  0.75448799  0.27421692  0.84376055    -0.10600
C1015       C  0.75238815  0.25182568  0.72513739     0.05900
H1016       H  0.74758466  0.21109399  0.78104289     0.07800
H1017       H  0.74828461  0.21142099  0.86139895     0.11300
H1018       H  0.75630771  0.29188071  0.86106729     0.11500
H1019       H  0.75737406  0.29251806  0.78077958     0.07800
C1020       C  0.74017020  0.26455081  0.70136353    -0.11300
C1021       C  0.73987396  0.26434077  0.65536250    -0.10600
C1022       C  0.75159213  0.25122140  0.63194983    -0.01500
C1023       C  0.76391052  0.23860730  0.65559389    -0.11700
C1024       C  0.76438426  0.23898213  0.70158877    -0.10100
H1025       H  0.73033907  0.27426883  0.71823352     0.07800
H1026       H  0.73020954  0.27425832  0.63816293     0.11500
H1027       H  0.77325887  0.22844872  0.63857382     0.11300
H1028       H  0.77446543  0.22944757  0.71863909     0.07800
C1029       C  0.74032326  0.26645877  0.20117915    -0.11300
C1030       C  0.74795351  0.24971960  0.22494311     0.05900
C1031       C  0.75552523  0.23299700  0.20151636    -0.10000
C1032       C  0.75583228  0.23325641  0.15557694    -0.11700
C1033       C  0.74831187  0.25003871  0.13186652    -0.01500
C1034       C  0.74038819  0.26652438  0.15513176    -0.10600
C1035       C  0.74812377  0.24966778  0.27391266     0.05900
H1036       H  0.76096033  0.21943008  0.21867624     0.07800
H1037       H  0.76179009  0.22012194  0.13861796     0.11300
H1038       H  0.73461270  0.27978124  0.13777164     0.11500
H1039       H  0.73473583  0.27986809  0.21814039     0.07800
C1040       C  0.76857600  0.24733986  0.29736700    -0.11300
C1041       C  0.76850685  0.24675306  0.34333629    -0.10600
C1042       C  0.74825453  0.24892784  0.36692333    -0.01500
C1043       C  0.72794550  0.25151008  0.34366393    -0.11700
C1044       C  0.72777766  0.25171110  0.29765056    -0.10100
H1045       H  0.78487440  0.24628475  0.28021192     0.07800
H1046       H  0.78459689  0.24506794  0.36044755     0.11500
H1047       H  0.71197115  0.25303715  0.36105717     0.11300
H1048       H  0.71147523  0.25307941  0.28069214     0.07800
C1049       C  0.75098467  0.02195033  0.70242024    -0.11300
C1050       C  0.74961874  0.99979796  0.72634084     0.05900
C1051       C  0.74807738  0.47746072  0.70303829    -0.10000
C1052       C  0.74766248  0.47717519  0.65705590    -0.11700
C1053       C  0.74924598  0.99941026  0.63333784    -0.01500
C1054       C  0.75102442  0.02184923  0.65642450    -0.10600
C1055       C  0.74976134  0.99994305  0.77532405     0.05900
H1056       H  0.74754507  0.46030347  0.72030167     0.07800
H1057       H  0.74655600  0.45973946  0.64003046     0.11300
H1058       H  0.75201493  0.03915219  0.63889457     0.11500
H1059       H  0.75166860  0.03924846  0.71920534     0.07800
C1060       C  0.76573283  0.02449434  0.79880214    -0.11300
C1061       C  0.76580180  0.02457682  0.84481137    -0.10600
C1062       C  0.75010511  0.00007270  0.86841680    -0.01500
C1063       C  0.73421904  0.47552664  0.84503463    -0.11700
C1064       C  0.73393797  0.47548260  0.79906392    -0.10100
H1065       H  0.77853044  0.04363105  0.78165952     0.07800
H1066       H  0.77839206  0.04380542  0.86188394     0.11500
H1067       H  0.72174647  0.45633102  0.86225967     0.11300
H1068       H  0.72099973  0.45629074  0.78214736     0.07800
C1069       C  0.72748472  0.47841633  0.29890573    -0.11300
C1070       C  0.75017168  0.99896335  0.27578944     0.05900
C1071       C  0.77245302  0.01936714  0.29997475    -0.10000
C1072       C  0.77189041  0.01943354  0.34593794    -0.11700
C1073       C  0.74933807  0.99877597  0.36875619    -0.01500
C1074       C  0.72722312  0.47816202  0.34491306    -0.10600
C1075       C  0.75054409  0.99917708  0.22675781     0.05900
H1076       H  0.79051776  0.03516112  0.28345941     0.07800
H1077       H  0.78933150  0.03537202  0.36371105     0.11300
H1078       H  0.70948884  0.46215748  0.36187217     0.11500
H1079       H  0.70971614  0.46270340  0.28150534     0.07800
C1080       C  0.73837626  0.97441996  0.20289901    -0.11300
C1081       C  0.73838631  0.97461264  0.15691201    -0.10600
C1082       C  0.75073234  0.99956093  0.13359240    -0.01500
C1083       C  0.76313300  0.52432492  0.15732166    -0.11700
C1084       C  0.76295798  0.52413898  0.20332195    -0.10100
H1085       H  0.72909523  0.95480870  0.21971193     0.07800
H1086       H  0.72876950  0.95516011  0.13964376     0.11500
H1087       H  0.77280172  0.54390939  0.14036679     0.11300
H1088       H  0.77214460  0.54361355  0.22045402     0.07800
C1089       C  0.65283818  0.12806189  0.49118259    -0.11300
C1090       C  0.62804036  0.12747292  0.50021151     0.05900
C1091       C  0.62852320  0.15217156  0.50952397    -0.10000
C1092       C  0.65335267  0.17706562  0.50957772    -0.11700
C1093       C  0.67824101  0.17770813  0.50082699    -0.01500
C1094       C  0.67773443  0.15292461  0.49176417    -0.10600
C1095       C  0.60169862  0.10116712  0.50001968     0.05900
H1096       H  0.60961429  0.15223374  0.51621362     0.07800
H1097       H  0.65305374  0.19579831  0.51664853     0.11300
H1098       H  0.69655026  0.15275448  0.48477877     0.11500
H1099       H  0.65297003  0.10922674  0.48421645     0.07800
C1100       C  0.59494786  0.08262660  0.46495883    -0.11300
C1101       C  0.56982861  0.05803068  0.46446260    -0.10600
C1102       C  0.55134097  0.05129715  0.49948403    -0.01500
C1103       C  0.55825033  0.06964953  0.53481649    -0.11700
C1104       C  0.58307892  0.09451544  0.53485044    -0.10100
H1105       H  0.60889839  0.08742450  0.43758671     0.07800
H1106       H  0.56476436  0.04421210  0.43677443     0.11500
H1107       H  0.54437953  0.06467918  0.56234642     0.11300
H1108       H  0.58795840  0.10838719  0.56241916     0.07800
C1109       C  0.90420396  0.41706930  0.46297111    -0.11300
C1110       C  0.89720749  0.39844651  0.49810688     0.05900
C1111       C  0.91547412  0.40519568  0.53384026    -0.10000
C1112       C  0.94024435  0.43011979  0.53446393    -0.11700
C1113       C  0.94738028  0.44850418  0.49904490    -0.01500
C1114       C  0.92919533  0.44179564  0.46328200    -0.10600
C1115       C  0.87099591  0.37196734  0.49744337     0.05900
H1116       H  0.91040591  0.39132371  0.56154268     0.07800
H1117       H  0.95391936  0.43509213  0.56251581     0.11300
H1118       H  0.93445277  0.45568910  0.43556565     0.11500
H1119       H  0.89056935  0.41224148  0.43490171     0.07800
C1120       C  0.84629274  0.37100014  0.48558602    -0.11300
C1121       C  0.82150260  0.34603548  0.48570800    -0.10600
C1122       C  0.82100535  0.32151851  0.49716780    -0.01500
C1123       C  0.84579833  0.32247646  0.50846640    -0.11700
C1124       C  0.87051728  0.34747641  0.50885633    -0.10100
H1125       H  0.84610805  0.38963697  0.47693635     0.07800
H1126       H  0.80273962  0.34592379  0.47671544     0.11500
H1127       H  0.84606928  0.30393625  0.51748364     0.11300
H1128       H  0.88933906  0.34765128  0.51767828     0.07800
C1129       C  0.59364789  0.00982828  0.53521145    -0.11300
C1130       C  0.60047327  0.99849373  0.49967079     0.05900
C1131       C  0.58216669  0.48745056  0.46396902    -0.10000
C1132       C  0.55757453  0.48803258  0.46361477    -0.11700
C1133       C  0.55071851  0.99922110  0.49928658    -0.01500
C1134       C  0.56884964  0.00997613  0.53518413    -0.10600
C1135       C  0.62677297  0.99843379  0.49974264     0.05900
H1136       H  0.58713482  0.47881829  0.43606358     0.07800
H1137       H  0.54386496  0.47979762  0.43553772     0.11300
H1138       H  0.56375291  0.01847964  0.56311841     0.11500
H1139       H  0.60736580  0.01824385  0.56324306     0.07800
C1140       C  0.65143323  0.02250060  0.50996472    -0.11300
C1141       C  0.67635151  0.02257646  0.50992243    -0.10600
C1142       C  0.67702652  0.99847523  0.50023067    -0.01500
C1143       C  0.65228745  0.47433428  0.49026532    -0.11700
C1144       C  0.62739831  0.47437400  0.48970370    -0.10100
H1145       H  0.65143945  0.04134475  0.51747377     0.07800
H1146       H  0.69506850  0.04146977  0.51781005     0.11500
H1147       H  0.65218850  0.45547244  0.48256689     0.11300
H1148       H  0.60857272  0.45553061  0.48200553     0.07800
C1149       C  0.84689463  0.47584322  0.51040063    -0.11300
C1150       C  0.87144023  0.00017302  0.50097225     0.05900
C1151       C  0.87059748  0.02423104  0.49162281    -0.10000
C1152       C  0.84560751  0.02402260  0.49205541    -0.11700
C1153       C  0.82096825  0.99964500  0.50124875    -0.01500
C1154       C  0.82184834  0.47552726  0.51024666    -0.10600
C1155       C  0.89787410  0.00042736  0.50082651     0.05900
H1156       H  0.88933668  0.04325944  0.48452338     0.07800
H1157       H  0.84556390  0.04290654  0.48487571     0.11300
H1158       H  0.80320703  0.45644698  0.51747286     0.11500
H1159       H  0.84708406  0.45700175  0.51735191     0.07800
C1160       C  0.90509112  0.98908135  0.53619520    -0.11300
C1161       C  0.93008728  0.98932912  0.53605976    -0.10600
C1162       C  0.94797313  0.00043802  0.50017408    -0.01500
C1163       C  0.94071331  0.51164615  0.46470390    -0.11700
C1164       C  0.91596424  0.51188817  0.46521792    -0.10100
H1165       H  0.89152628  0.98034869  0.56414280     0.07800
H1166       H  0.93548862  0.98077918  0.56383070     0.11500
H1167       H  0.95419784  0.52010355  0.43660824     0.11300
H1168       H  0.91068607  0.52055384  0.43746352     0.07800
C1169       C  0.65281924  0.13034054  0.01508269    -0.11300
C1170       C  0.62930755  0.12833005  0.99487791     0.05900
C1171       C  0.63097173  0.15175682  0.97509504    -0.10000
C1172       C  0.65562115  0.17689879  0.97621063    -0.11700
C1173       C  0.67917694  0.17888224  0.99626499    -0.01500
C1174       C  0.67760710  0.15531128  0.01534764    -0.10600
C1175       C  0.60299246  0.10195262  0.99523079     0.05900
H1176       H  0.61304718  0.15070047  0.95954096     0.07800
H1177       H  0.65634016  0.19473347  0.96104628     0.11300
H1178       H  0.69544492  0.15629850  0.03111545     0.11500
H1179       H  0.65203165  0.11249855  0.03036006     0.07800
C1180       C  0.59271092  0.08758513  0.03489279    -0.11300
C1181       C  0.56769901  0.06288649  0.03555534    -0.10600
C1182       C  0.55299460  0.05172325  0.99642261    -0.01500
C1183       C  0.56313909  0.06602617  0.95674425    -0.11700
C1184       C  0.58788303  0.09109082  0.95618881    -0.10100
H1185       H  0.60378587  0.09578359  0.06548250     0.07800
H1186       H  0.55970024  0.05254040  0.06664321     0.11500
H1187       H  0.55180167  0.05782427  0.92636164     0.11300
H1188       H  0.59542085  0.10184107  0.92523905     0.07800
C1189       C  0.91670307  0.40727638  0.03680498    -0.11300
C1190       C  0.89819276  0.39974290  0.00128067     0.05900
C1191       C  0.90507947  0.41745252  0.96488560    -0.10000
C1192       C  0.93016898  0.44206955  0.96379588    -0.11700
C1193       C  0.94855591  0.44964401  0.99942035    -0.01500
C1194       C  0.94155944  0.43214915  0.03605215    -0.10600
C1195       C  0.87185602  0.37337135  0.00197250     0.05900
H1196       H  0.89127419  0.41196072  0.93691239     0.07800
H1197       H  0.93536830  0.45514768  0.93503123     0.11300
H1198       H  0.95543151  0.43774661  0.06395431     0.11500
H1199       H  0.91175723  0.39406575  0.06536649     0.07800
C1200       C  0.87128885  0.34889543  0.01382789    -0.11300
C1201       C  0.84651343  0.32389830  0.01349923    -0.10600
C1202       C  0.82176124  0.32295617  0.00191660    -0.01500
C1203       C  0.82232060  0.34753527  0.99063352    -0.11700
C1204       C  0.84715292  0.37246176  0.99035447    -0.10100
H1205       H  0.89010868  0.34905416  0.02260523     0.07800
H1206       H  0.84672629  0.30532203  0.02246592     0.11500
H1207       H  0.80360061  0.34746817  0.98149105     0.11300
H1208       H  0.84704584  0.39110132  0.98142374     0.07800
C1209       C  0.65150805  0.02111574  0.01615098    -0.11300
C1210       C  0.62757235  0.49807975  0.00034674     0.05900
C1211       C  0.62909043  0.47538969  0.98474571    -0.10000
C1212       C  0.65414089  0.47565864  0.98528109    -0.11700
C1213       C  0.67818454  0.99883629  0.00065081    -0.01500
C1214       C  0.67664160  0.02159974  0.01592783    -0.10600
C1215       C  0.60114004  0.49787757  0.00009818     0.05900
H1216       H  0.61082660  0.45735343  0.97265216     0.07800
H1217       H  0.65476293  0.45785862  0.97320543     0.11300
H1218       H  0.69481815  0.03967670  0.02812051     0.11500
H1219       H  0.65080375  0.03890233  0.02809997     0.07800
C1220       C  0.59217489  0.00508527  0.03817985    -0.11300
C1221       C  0.56751971  0.00550043  0.03783584    -0.10600
C1222       C  0.55182743  0.99941727  0.99913864    -0.01500
C1223       C  0.56051595  0.49186538  0.96117376    -0.11700
C1224       C  0.58494431  0.49091497  0.96171704    -0.10100
H1225       H  0.60412341  0.01008401  0.06831869     0.07800
H1226       H  0.56057664  0.01041200  0.06780704     0.11500
H1227       H  0.54837446  0.48674975  0.93122795     0.11300
H1228       H  0.59149777  0.48530212  0.93198810     0.07800
C1229       C  0.84903003  0.47787828  0.01599034    -0.11300
C1230       C  0.87302540  0.00109151  0.00105696     0.05900
C1231       C  0.87165412  0.02410950  0.98639898    -0.10000
C1232       C  0.84670060  0.02401133  0.98692900    -0.11700
C1233       C  0.82255943  0.50066768  0.00130613    -0.01500
C1234       C  0.82394602  0.47755841  0.01570119    -0.10600
C1235       C  0.89941839  0.00123279  0.00015195     0.05900
H1236       H  0.88997997  0.04225580  0.97490542     0.07800
H1237       H  0.84622910  0.04207044  0.97553104     0.11300
H1238       H  0.80568276  0.45932152  0.02709345     0.11500
H1239       H  0.84964805  0.45985361  0.02718736     0.07800
C1240       C  0.90950516  0.99484176  0.03814070    -0.11300
C1241       C  0.93468232  0.99537453  0.03718883    -0.10600
C1242       C  0.94985606  0.00188049  0.99809449    -0.01500
C1243       C  0.93950567  0.50769776  0.95994267    -0.11700
C1244       C  0.91464821  0.50772977  0.96109028    -0.10100
H1245       H  0.89804990  0.98977565  0.06859139     0.07800
H1246       H  0.94227507  0.99051432  0.06677419     0.11500
H1247       H  0.95049802  0.51184684  0.92917151     0.11300
H1248       H  0.90701474  0.51231632  0.93128527     0.07800
C1249       C  0.51026045  0.09439293  0.46281491    -0.11300
C1250       C  0.49988782  0.10190373  0.49887602     0.05900
C1251       C  0.98952602  0.08409974  0.53519719    -0.10000
C1252       C  0.98963956  0.05929662  0.53552236    -0.11700
C1253       C  0.49981899  0.05175438  0.49934046    -0.01500
C1254       C  0.51008206  0.06943314  0.46295491    -0.10600
C1255       C  0.49983861  0.12823104  0.49867641     0.05900
H1256       H  0.98168736  0.08956691  0.56357196     0.07800
H1257       H  0.98181738  0.04594786  0.56397887     0.11300
H1258       H  0.51785350  0.06380933  0.43466796     0.11500
H1259       H  0.51811617  0.10765418  0.43427277     0.07800
C1260       C  0.52330740  0.15267012  0.48563788    -0.11300
C1261       C  0.52338492  0.17759593  0.48628992    -0.10600
C1262       C  0.49985450  0.17845911  0.49939818    -0.01500
C1263       C  0.97628821  0.15394076  0.51193061    -0.11700
C1264       C  0.97634447  0.12910179  0.51184701    -0.10100
H1265       H  0.54173734  0.15254189  0.47562983     0.07800
H1266       H  0.54179400  0.19615636  0.47626787     0.11500
H1267       H  0.95786698  0.15398676  0.52222872     0.11300
H1268       H  0.95791276  0.11048836  0.52164930     0.07800
C1269       C  0.97463302  0.34668673  0.49040969    -0.11300
C1270       C  0.49862824  0.37139603  0.50076042     0.05900
C1271       C  0.52275833  0.37088037  0.51134312    -0.10000
C1272       C  0.52296501  0.34610470  0.51121552    -0.11700
C1273       C  0.49892833  0.32131569  0.50111527    -0.01500
C1274       C  0.97472256  0.32184360  0.49089511    -0.10600
C1275       C  0.49854070  0.39768423  0.50045152     0.05900
H1276       H  0.54156083  0.38972719  0.51911638     0.07800
H1277       H  0.54190796  0.34634124  0.51930498     0.11300
H1278       H  0.95590299  0.30308454  0.48287637     0.11500
H1279       H  0.95573387  0.34658293  0.48245192     0.07800
C1280       C  0.98729464  0.40467297  0.46460712    -0.11300
C1281       C  0.98766639  0.42972831  0.46401920    -0.10600
C1282       C  0.49884272  0.44794381  0.49960722    -0.01500
C1283       C  0.50978956  0.44084236  0.53565802    -0.11700
C1284       C  0.50986255  0.41601976  0.53591362    -0.10100
H1285       H  0.97865927  0.39094365  0.43674916     0.07800
H1286       H  0.97928324  0.43497534  0.43582825     0.11500
H1287       H  0.51828443  0.45457096  0.56354728     0.11300
H1288       H  0.51842483  0.41094747  0.56406280     0.07800
C1289       C  0.97742713  0.24253623  0.79832244    -0.11300
C1290       C  0.50195302  0.25091303  0.77505679     0.05900
C1291       C  0.52651831  0.25990938  0.79904254    -0.10000
C1292       C  0.52651198  0.26042526  0.84506012    -0.11700
C1293       C  0.50190566  0.25169441  0.86816809    -0.01500
C1294       C  0.97738383  0.24279404  0.84427270    -0.10600
C1295       C  0.50184099  0.25033456  0.72605097     0.05900
H1296       H  0.54572810  0.26613017  0.78232431     0.07800
H1297       H  0.54572953  0.26728077  0.86253428     0.11300
H1298       H  0.95809996  0.23613553  0.86107495     0.11500
H1299       H  0.95822491  0.23605721  0.78104962     0.07800
C1300       C  0.97934313  0.22950467  0.70280822    -0.11300
C1301       C  0.97884448  0.22942254  0.65681761    -0.10600
C1302       C  0.50103595  0.24986028  0.63301352    -0.01500
C1303       C  0.52375454  0.27037683  0.65602548    -0.11700
C1304       C  0.52406068  0.27075285  0.70202329    -0.10100
H1305       H  0.96215262  0.21309599  0.72011890     0.07800
H1306       H  0.96122050  0.21316657  0.63985267     0.11500
H1307       H  0.54106126  0.28649072  0.63843571     0.11300
H1308       H  0.54151183  0.28736448  0.71869604     0.13800
C1309       C  0.52168533  0.26885517  0.20300683    -0.11300
C1310       C  0.49830377  0.24945609  0.22611292     0.05900
C1311       C  0.97524599  0.23016582  0.20199382    -0.10000
C1312       C  0.97561349  0.23026392  0.15598306    -0.11700
C1313       C  0.49916151  0.24940320  0.13309928    -0.01500
C1314       C  0.52218184  0.26868761  0.15707617    -0.10600
C1315       C  0.49815791  0.24926383  0.27509896     0.05900
H1316       H  0.95704911  0.21466499  0.21862603     0.07800
H1317       H  0.95760193  0.21507746  0.13832863     0.11300
H1318       H  0.54049729  0.28391712  0.14030818     0.11500
H1319       H  0.53958216  0.28441405  0.22037856     0.07800
C1320       C  0.52222856  0.25573151  0.29888222    -0.11300
C1321       C  0.52235373  0.25601718  0.34481423    -0.10600
C1322       C  0.49832887  0.24948962  0.36816158    -0.01500
C1323       C  0.97413408  0.24265149  0.34457872    -0.11700
C1324       C  0.97408450  0.24269417  0.29854625    -0.10100
H1325       H  0.54097921  0.26027794  0.28203787     0.07800
H1326       H  0.54125128  0.26107399  0.36205817     0.11500
H1327       H  0.95532108  0.23763467  0.36168987     0.11300
H1328       H  0.95527777  0.23800226  0.28137455     0.07800
C1329       C  0.98059937  0.13094688  0.98112759    -0.11300
C1330       C  0.50362565  0.12995201  0.99699513     0.05900
C1331       C  0.52615803  0.15395118  0.01370839    -0.10000
C1332       C  0.52575755  0.17866038  0.01416852    -0.11700
C1333       C  0.00255813  0.17962178  0.99880785    -0.01500
C1334       C  0.97994732  0.15548927  0.98243327    -0.10600
C1335       C  0.50390384  0.10378627  0.99647586     0.05900
H1336       H  0.54415198  0.15359894  0.02596529     0.07800
H1337       H  0.54344482  0.19692815  0.02705745     0.11300
H1338       H  0.96185308  0.15564633  0.97020780     0.11500
H1339       H  0.96294883  0.11259812  0.96832916     0.07800
C1340       C  0.99858781  0.08880025  0.95724272    -0.11300
C1341       C  0.99824123  0.06375081  0.95693770    -0.10600
C1342       C  0.50230176  0.05293216  0.99609365    -0.01500
C1343       C  0.50791422  0.06799341  0.03522576    -0.11700
C1344       C  0.50895459  0.09338901  0.03535231    -0.10100
H1345       H  0.99498872  0.09665108  0.92681553     0.07800
H1346       H  0.99473922  0.05275539  0.92622848     0.11500
H1347       H  0.51144979  0.06002971  0.06558292     0.11300
H1348       H  0.51309789  0.10465177  0.06593892     0.07800
C1349       C  0.50937668  0.41594761  0.03791616    -0.11300
C1350       C  0.99853485  0.39766659  0.00226861     0.05900
C1351       C  0.98814414  0.40496915  0.96560858    -0.10000
C1352       C  0.98893121  0.43023442  0.96439027    -0.11700
C1353       C  0.49976344  0.44843450  0.00004552    -0.01500
C1354       C  0.50978720  0.44101966  0.03693695    -0.10600
C1355       C  0.99851354  0.37126974  0.00299482     0.05900
H1356       H  0.97990486  0.39134879  0.93755405     0.07800
H1357       H  0.98114118  0.43565897  0.93563526     0.11300
H1358       H  0.51783039  0.45463661  0.06502147     0.11500
H1359       H  0.51723134  0.41067362  0.06675031     0.07800
C1360       C  0.52215708  0.37050832  0.01619754    -0.11300
C1361       C  0.52249814  0.34580117  0.01571591    -0.10600
C1362       C  0.99907244  0.32127126  0.00258791    -0.01500
C1363       C  0.97526333  0.32195355  0.99005472    -0.11700
C1364       C  0.97505662  0.34675787  0.98994716    -0.10100
H1365       H  0.54057424  0.38915278  0.02608789     0.07800
H1366       H  0.54109993  0.34589427  0.02575961     0.11500
H1367       H  0.95691017  0.30337811  0.97976576     0.11300
H1368       H  0.95649358  0.34677260  0.97998514     0.07800
O1369       O  0.97706284  0.73742018  0.06280881    -0.74900
O1370       O  0.97849751  0.73965814  0.93693340    -0.74900
O1371       O  0.97871652  0.70489921  0.99852515    -0.75000
O1372       O  0.97694812  0.77224581  0.00079972    -0.75000
O1373       O  0.52278490  0.79590162  0.00197527    -0.74900
O1374       O  0.52452748  0.72857531  0.00160884    -0.74900
O1375       O  0.52432665  0.76278015  0.93849699    -0.74900
O1376       O  0.52287524  0.76176433  0.06458232    -0.75000
Ni1377     Ni  0.97618215  0.73770938  0.99973841     1.25400
Ni1378     Ni  0.52526248  0.76308936  0.00169039     1.25400
C1379       C  0.49971619  0.74947258  0.08448772     0.87300
C1380       C  0.50160657  0.75143217  0.91688042     0.87200
C1381       C  0.00191032  0.70562172  0.99973788     0.87300
C1382       C  0.99960506  0.79520538  0.00174579     0.87400
O1383       O  0.52266163  0.72748711  0.49970793    -0.74900
O1384       O  0.52214978  0.79543660  0.50060976    -0.74900
O1385       O  0.52314535  0.76161917  0.56319055    -0.75000
O1386       O  0.52174375  0.76134477  0.43728023    -0.75000
O1387       O  0.97590154  0.73842907  0.43798888    -0.74900
O1388       O  0.97729022  0.73817986  0.56411197    -0.74900
O1389       O  0.97630869  0.77230762  0.50140051    -0.74900
O1390       O  0.97681372  0.70441817  0.50065730    -0.75000
Ni1391     Ni  0.52405233  0.76229869  0.50017722     1.25400
Ni1392     Ni  0.97494624  0.73752705  0.50108681     1.25400
C1393       C  0.49979565  0.70473238  0.49994569     0.87300
C1394       C  0.49913843  0.79508924  0.50106819     0.87200
C1395       C  0.50045623  0.74986744  0.58442785     0.87300
C1396       C  0.49863820  0.74978694  0.41682178     0.87400
C1397       C  0.97536797  0.97577785  0.99811358     0.01800
C1398       C  0.50029248  0.97518458  0.99901817     0.01800
C1399       C  0.52574377  0.50007556  0.99883998     0.01800
C1400       C  0.52633223  0.52552540  0.99729569     0.01800
C1401       C  0.50147768  0.52611668  0.99602254     0.01800
C1402       C  0.97598759  0.50127532  0.99666067     0.01800
C1403       C  0.97401879  0.97482246  0.49932275     0.01800
C1404       C  0.49908841  0.97454512  0.49921804     0.01800
C1405       C  0.52441778  0.49958712  0.49916062     0.01800
C1406       C  0.52470742  0.52493758  0.49927294     0.01800
C1407       C  0.49961761  0.52518792  0.49946076     0.01800
C1408       C  0.97430240  0.50015041  0.49960905     0.01800
O1409       O  0.73900505  0.97686776  0.06389695    -0.74900
O1410       O  0.73934047  0.97712789  0.93790499    -0.74900
O1411       O  0.77350742  0.97738026  0.00172040    -0.75000
O1412       O  0.70484567  0.97651175  0.00006360    -0.75000
O1413       O  0.72726971  0.52231219  0.00165331    -0.74900
O1414       O  0.79599618  0.52318354  0.00044961    -0.74900
O1415       O  0.76129399  0.52291371  0.93800324    -0.74900
O1416       O  0.76206954  0.52265583  0.06408904    -0.75000
Ni1417     Ni  0.73838528  0.97535399  0.00089065     1.25400
Ni1418     Ni  0.76245226  0.52440429  0.00105311     1.25400
C1419       C  0.75060422  0.49971203  0.08484615     0.87300
C1420       C  0.75026535  0.50005170  0.91712030     0.87200
C1421       C  0.79608053  0.00040291  0.00116125     0.87300
C1422       C  0.70471656  0.99925074  0.00079406     0.87400
O1423       O  0.73813393  0.97626291  0.56419612    -0.74900
O1424       O  0.73717033  0.97589668  0.43809603    -0.74900
O1425       O  0.77190882  0.97637679  0.50108978    -0.75000
O1426       O  0.70339016  0.97577108  0.50116180    -0.75000
O1427       O  0.72603822  0.52157866  0.50003003    -0.74900
O1428       O  0.79450105  0.52218611  0.50154316    -0.74900
O1429       O  0.76063774  0.52173795  0.43783009    -0.74900
O1430       O  0.76000878  0.52207510  0.56377730    -0.75000
Ni1431     Ni  0.73684022  0.97443613  0.50116175     1.25400
Ni1432     Ni  0.76108407  0.52351836  0.50078507     1.25400
C1433       C  0.74911488  0.49923437  0.58476028     0.87300
C1434       C  0.74898229  0.49878586  0.41723483     0.87200
C1435       C  0.79451416  0.49938218  0.50132860     0.87300
C1436       C  0.70341612  0.49859841  0.50047902     0.87400
O1437       O  0.76113851  0.73942310  0.06317410    -0.74900
O1438       O  0.76257997  0.73952165  0.93718512    -0.74900
O1439       O  0.79593372  0.77385607  0.00131755    -0.75000
O1440       O  0.72808564  0.70534475  0.99951897    -0.75000
O1441       O  0.70484405  0.72795974  0.99623491    -0.74900
O1442       O  0.77271080  0.79650146  0.00030764    -0.74900
O1443       O  0.74025758  0.76309888  0.93557699    -0.74900
O1444       O  0.73752574  0.76166524  0.06154772    -0.75000
Ni1445     Ni  0.76278901  0.73876174  0.00033019     1.25400
Ni1446     Ni  0.73798143  0.76308782  0.99840353     1.25400
C1447       C  0.74899359  0.75040158  0.08318216     0.87300
C1448       C  0.75172532  0.75141943  0.91566022     0.87200
C1449       C  0.79554241  0.79649143  0.00121586     0.87300
C1450       C  0.70528308  0.70535208  0.99735570     0.87400
O1451       O  0.72733154  0.70411705  0.49951284    -0.74900
O1452       O  0.79520344  0.77253170  0.49911547    -0.74900
O1453       O  0.76167109  0.73854576  0.56240046    -0.75000
O1454       O  0.76101057  0.73834623  0.43626397    -0.75000
O1455       O  0.73657127  0.75975781  0.43637816    -0.74900
O1456       O  0.73934744  0.76206766  0.56229112    -0.74900
O1457       O  0.77193323  0.79511930  0.49708575    -0.74900
O1458       O  0.70410877  0.72673184  0.50143648    -0.75000
Ni1459     Ni  0.76211338  0.73755391  0.49933267     1.25400
Ni1460     Ni  0.73716676  0.76172091  0.49931376     1.25400
C1461       C  0.70449927  0.70411597  0.50066812     0.87300
C1462       C  0.79477949  0.79512234  0.49774290     0.87200
C1463       C  0.75085040  0.75058977  0.58320105     0.87300
C1464       C  0.74857875  0.74894456  0.41553183     0.87400
C1465       C  0.75489394  0.77445072  0.79777826    -0.11300
C1466       C  0.75249273  0.75182100  0.77419346     0.05900
C1467       C  0.75007459  0.72912939  0.79794158    -0.10000
C1468       C  0.75030910  0.72919624  0.84395400    -0.11700
C1469       C  0.75231244  0.75165033  0.86718986    -0.01500
C1470       C  0.75448782  0.77421692  0.84376070    -0.10600
C1471       C  0.75238829  0.75182588  0.72513741     0.05900
H1472       H  0.74758512  0.71109433  0.78104291     0.07800
H1473       H  0.74828509  0.71142124  0.86139883     0.11300
H1474       H  0.75630735  0.79188062  0.86106749     0.11500
H1475       H  0.75737382  0.79251810  0.78077989     0.07800
C1476       C  0.74017057  0.76455121  0.70136350    -0.11300
C1477       C  0.73987435  0.76434120  0.65536247    -0.10600
C1478       C  0.75159236  0.75122163  0.63194987    -0.01500
C1479       C  0.76391059  0.73860739  0.65559393    -0.11700
C1480       C  0.76438427  0.73898218  0.70158881    -0.10100
H1481       H  0.73033954  0.77426939  0.71823344     0.07800
H1482       H  0.73021010  0.77425886  0.63816290     0.11500
H1483       H  0.77325882  0.72844869  0.63857386     0.11300
H1484       H  0.77446530  0.72944749  0.71863910     0.07800
C1485       C  0.74032324  0.76645831  0.20117930    -0.11300
C1486       C  0.74795349  0.74971916  0.22494321     0.05900
C1487       C  0.75552537  0.73299669  0.20151637    -0.10000
C1488       C  0.75583259  0.73325631  0.15557693    -0.11700
C1489       C  0.74831206  0.75003855  0.13186661    -0.01500
C1490       C  0.74038821  0.76652403  0.15513198    -0.10600
C1491       C  0.74812373  0.74966736  0.27391275     0.05900
H1492       H  0.76096049  0.71942980  0.21867612     0.07800
H1493       H  0.76179059  0.72012198  0.13861785     0.11300
H1494       H  0.73461262  0.77978090  0.13777191     0.11500
H1495       H  0.73473576  0.77986764  0.21814066     0.07800
C1496       C  0.76857593  0.74733940  0.29736708    -0.11300
C1497       C  0.76850679  0.74675267  0.34333636    -0.10600
C1498       C  0.74825459  0.74892765  0.36692341    -0.01500
C1499       C  0.72794561  0.75151001  0.34366401    -0.11700
C1500       C  0.72777773  0.75171088  0.29765064    -0.10100
H1501       H  0.78487429  0.74628421  0.28021200     0.07800
H1502       H  0.78459681  0.74506745  0.36044761     0.11500
H1503       H  0.71197141  0.75303724  0.36105720     0.11300
H1504       H  0.71147530  0.75307923  0.28069218     0.07800
C1505       C  0.75098461  0.52195053  0.70242033    -0.11300
C1506       C  0.74961886  0.49979826  0.72634099     0.05900
C1507       C  0.74807720  0.97746041  0.70303807    -0.10000
C1508       C  0.74766232  0.97717488  0.65705565    -0.11700
C1509       C  0.74924597  0.49941044  0.63333797    -0.01500
C1510       C  0.75102427  0.52184937  0.65642457    -0.10600
C1511       C  0.74976146  0.49994332  0.77532420     0.05900
H1512       H  0.74754479  0.96030303  0.72030144     0.07800
H1513       H  0.74655569  0.95973920  0.64003023     0.11300
H1514       H  0.75201467  0.53915227  0.63889455     0.11500
H1515       H  0.75166850  0.53924865  0.71920540     0.07800
C1516       C  0.76573284  0.52449459  0.79880237    -0.11300
C1517       C  0.76580186  0.52457702  0.84481157    -0.10600
C1518       C  0.75010526  0.50007285  0.86841696    -0.01500
C1519       C  0.73421880  0.97552645  0.84503453    -0.11700
C1520       C  0.73393773  0.97548239  0.79906379    -0.10100
H1521       H  0.77853037  0.54363137  0.78165975     0.07800
H1522       H  0.77839215  0.54380563  0.86188423     0.11500
H1523       H  0.72174620  0.95633091  0.86225955     0.11300
H1524       H  0.72099944  0.95629054  0.78214727     0.07800
C1525       C  0.72748467  0.97841657  0.29890565    -0.11300
C1526       C  0.75017183  0.49896301  0.27578956     0.05900
C1527       C  0.77245323  0.51936674  0.29997485    -0.10000
C1528       C  0.77189058  0.51943322  0.34593804    -0.11700
C1529       C  0.74933817  0.49877574  0.36875627    -0.01500
C1530       C  0.72722305  0.97816221  0.34491297    -0.10600
C1531       C  0.75054419  0.49917677  0.22675792     0.05900
H1532       H  0.79051799  0.53516064  0.28345954     0.07800
H1533       H  0.78933164  0.53537164  0.36371115     0.11300
H1534       H  0.70948885  0.96215759  0.36187201     0.11500
H1535       H  0.70971612  0.96270349  0.28150526     0.07800
C1536       C  0.73837615  0.47441971  0.20289899    -0.11300
C1537       C  0.73838620  0.47461245  0.15691196    -0.10600
C1538       C  0.75073246  0.49956081  0.13359248    -0.01500
C1539       C  0.76313271  0.02432511  0.15732143    -0.11700
C1540       C  0.76295764  0.02413924  0.20332173    -0.10100
H1541       H  0.72909496  0.45480839  0.21971180     0.07800
H1542       H  0.72876929  0.45516000  0.13964366     0.11500
H1543       H  0.77280126  0.04390950  0.14036651     0.11300
H1544       H  0.77214407  0.04361385  0.22045372     0.07800
C1545       C  0.65283815  0.62806193  0.49118274    -0.11300
C1546       C  0.62804033  0.62747299  0.50021177     0.05900
C1547       C  0.62852321  0.65217163  0.50952433    -0.10000
C1548       C  0.65335270  0.67706567  0.50957807    -0.11700
C1549       C  0.67824104  0.67770817  0.50082726    -0.01500
C1550       C  0.67773442  0.65292464  0.49176441    -0.10600
C1551       C  0.60169856  0.60116721  0.50001979     0.05900
H1552       H  0.60961431  0.65223384  0.51621402     0.07800
H1553       H  0.65305379  0.69579837  0.51664887     0.11300
H1554       H  0.69655025  0.65275450  0.48477896     0.11500
H1555       H  0.65296999  0.60922686  0.48421647     0.07800
C1556       C  0.59494782  0.58262685  0.46495872    -0.11300
C1557       C  0.56982858  0.55803093  0.46446233    -0.10600
C1558       C  0.55134096  0.55129720  0.49948377    -0.01500
C1559       C  0.55825028  0.56964942  0.53481650    -0.11700
C1560       C  0.58307886  0.59451538  0.53485060    -0.10100
H1561       H  0.60889835  0.58742488  0.43758665     0.07800
H1562       H  0.56476436  0.54421245  0.43677393     0.11500
H1563       H  0.54437954  0.56467891  0.56234643     0.11300
H1564       H  0.58795831  0.60838699  0.56241953     0.07800
C1565       C  0.90420399  0.91706949  0.46297170    -0.11300
C1566       C  0.89720756  0.89844655  0.49810724     0.05900
C1567       C  0.91547418  0.90519565  0.53384063    -0.10000
C1568       C  0.94024434  0.93011976  0.53446442    -0.11700
C1569       C  0.94738025  0.94850431  0.49904570    -0.01500
C1570       C  0.92919531  0.94179594  0.46328275    -0.10600
C1571       C  0.87099599  0.87196734  0.49744369     0.05900
H1572       H  0.91040596  0.89132357  0.56154295     0.07800
H1573       H  0.95391943  0.93509201  0.56251640     0.11300
H1574       H  0.93445269  0.95568946  0.43556683     0.11500
H1575       H  0.89056940  0.91224179  0.43490228     0.07800
C1576       C  0.84629280  0.87100017  0.48558667    -0.11300
C1577       C  0.82150264  0.84603552  0.48570861    -0.10600
C1578       C  0.82100542  0.82151851  0.49716793    -0.01500
C1579       C  0.84579840  0.82247642  0.50846640    -0.11700
C1580       C  0.87051737  0.84747638  0.50885649    -0.10100
H1581       H  0.84610810  0.88963702  0.47693732     0.07800
H1582       H  0.80273964  0.84592387  0.47671636     0.11500
H1583       H  0.84606934  0.80393616  0.51748338     0.11300
H1584       H  0.88933911  0.84765120  0.51767831     0.07800
C1585       C  0.59364787  0.50982824  0.53521115    -0.11300
C1586       C  0.60047326  0.49849364  0.49967058     0.05900
C1587       C  0.58216663  0.98745059  0.46396933    -0.10000
C1588       C  0.55757443  0.98803254  0.46361520    -0.11700
C1589       C  0.55071860  0.49922121  0.49928605    -0.01500
C1590       C  0.56884966  0.50997616  0.53518370    -0.10600
C1591       C  0.62677297  0.49843369  0.49974257     0.05900
H1592       H  0.58713473  0.97881832  0.43606388     0.07800
H1593       H  0.54386489  0.97979762  0.43553820     0.11300
H1594       H  0.56375287  0.51847962  0.56311799     0.11500
H1595       H  0.60736574  0.51824379  0.56324280     0.07800
C1596       C  0.65143319  0.52250048  0.50996500    -0.11300
C1597       C  0.67635147  0.52257633  0.50992276    -0.10600
C1598       C  0.67702656  0.49847520  0.50023074    -0.01500
C1599       C  0.65228738  0.97433431  0.49026545    -0.11700
C1600       C  0.62739825  0.97437404  0.48970399    -0.10100
H1601       H  0.65143934  0.54134453  0.51747416     0.07800
H1602       H  0.69506850  0.54146970  0.51781064     0.11500
H1603       H  0.65218840  0.95547244  0.48256713     0.11300
H1604       H  0.60857258  0.95553060  0.48200614     0.07800
C1605       C  0.84689462  0.97584322  0.51040147    -0.11300
C1606       C  0.87144024  0.50017303  0.50097142     0.05900
C1607       C  0.87059750  0.52423107  0.49162214    -0.10000
C1608       C  0.84560753  0.52402265  0.49205488    -0.11700
C1609       C  0.82096828  0.49964505  0.50124842    -0.01500
C1610       C  0.82184830  0.97552720  0.51024710    -0.10600
C1611       C  0.89787408  0.50042733  0.50082547     0.05900
H1612       H  0.88933671  0.54325947  0.48452270     0.07800
H1613       H  0.84556388  0.54290653  0.48487525     0.11300
H1614       H  0.80320697  0.95644690  0.51747314     0.11500
H1615       H  0.84708409  0.95700180  0.51735301     0.07800
C1616       C  0.90509103  0.48908113  0.53619396    -0.11300
C1617       C  0.93008715  0.48932883  0.53605842    -0.10600
C1618       C  0.94797306  0.50043787  0.50017284    -0.01500
C1619       C  0.94071333  0.01164618  0.46470506    -0.11700
C1620       C  0.91596426  0.01188817  0.46521897    -0.10100
H1621       H  0.89152620  0.48034843  0.56414159     0.07800
H1622       H  0.93548842  0.48077880  0.56382922     0.11500
H1623       H  0.95419787  0.02010353  0.43660930     0.11300
H1624       H  0.91068608  0.02055376  0.43746449     0.07800
C1625       C  0.65281931  0.63034054  0.01508212    -0.11300
C1626       C  0.62930754  0.62833015  0.99487776     0.05900
C1627       C  0.63097172  0.65175702  0.97509532    -0.10000
C1628       C  0.65562118  0.67689893  0.97621069    -0.11700
C1629       C  0.67917699  0.67888225  0.99626479    -0.01500
C1630       C  0.67760719  0.65531126  0.01534717    -0.10600
C1631       C  0.60299246  0.60195266  0.99523056     0.05900
H1632       H  0.61304711  0.65070083  0.95954156     0.07800
H1633       H  0.65634019  0.69473363  0.96104653     0.11300
H1634       H  0.69544497  0.65629840  0.03111477     0.11500
H1635       H  0.65203184  0.61249849  0.03035909     0.07800
C1636       C  0.59271189  0.58758415  0.03489199    -0.11300
C1637       C  0.56770009  0.56288549  0.03555468    -0.10600
C1638       C  0.55299471  0.55172313  0.99642244    -0.01500
C1639       C  0.56313813  0.56602709  0.95674460    -0.11700
C1640       C  0.58788199  0.59109181  0.95618911    -0.10100
H1641       H  0.60378760  0.59578196  0.06548156     0.07800
H1642       H  0.55970204  0.55253871  0.06664236     0.11500
H1643       H  0.55179992  0.55782589  0.92636234     0.11300
H1644       H  0.59541896  0.60184281  0.92523971     0.07800
C1645       C  0.91670323  0.90727633  0.03680495    -0.11300
C1646       C  0.89819281  0.89974274  0.00128080     0.05900
C1647       C  0.90507940  0.91745234  0.96488571    -0.10000
C1648       C  0.93016881  0.94206945  0.96379592    -0.11700
C1649       C  0.94855587  0.94964398  0.99942022    -0.01500
C1650       C  0.94155957  0.93214913  0.03605205    -0.10600
C1651       C  0.87185608  0.87337118  0.00197280     0.05900
H1652       H  0.89127403  0.91196048  0.93691254     0.07800
H1653       H  0.93536801  0.95514762  0.93503126     0.11300
H1654       H  0.95543168  0.93774661  0.06395403     0.11500
H1655       H  0.91175751  0.89406571  0.06536655     0.07800
C1656       C  0.87128887  0.84889528  0.01382851    -0.11300
C1657       C  0.84651344  0.82389815  0.01349987    -0.10600
C1658       C  0.82176127  0.82295602  0.00191689    -0.01500
C1659       C  0.82232067  0.84753508  0.99063357    -0.11700
C1660       C  0.84715299  0.87246156  0.99035451    -0.10100
H1661       H  0.89010867  0.84905400  0.02260607     0.07800
H1662       H  0.84672626  0.80532193  0.02246675     0.11500
H1663       H  0.80360071  0.84746798  0.98149085     0.11300
H1664       H  0.84704591  0.89110109  0.98142357     0.07800
C1665       C  0.65150799  0.52111538  0.01615202    -0.11300
C1666       C  0.62757230  0.99807994  0.00034642     0.05900
C1667       C  0.62909026  0.97538969  0.98474607    -0.10000
C1668       C  0.65414067  0.97565857  0.98528141    -0.11700
C1669       C  0.67818466  0.49883623  0.00065110    -0.01500
C1670       C  0.67664159  0.52159948  0.01592882    -0.10600
C1671       C  0.60114000  0.99787779  0.00009791     0.05900
H1672       H  0.61082634  0.95735324  0.97265309     0.07800
H1673       H  0.65476259  0.95785836  0.97320629     0.11300
H1674       H  0.69481803  0.53967626  0.02812201     0.11500
H1675       H  0.65080356  0.53890181  0.02810165     0.07800
C1676       C  0.59217431  0.50508380  0.03818075    -0.11300
C1677       C  0.56751915  0.50549899  0.03783672    -0.10600
C1678       C  0.55182750  0.49941712  0.99913902    -0.01500
C1679       C  0.56051530  0.99186435  0.96117399    -0.11700
C1680       C  0.58494367  0.99091394  0.96171732    -0.10100
H1681       H  0.60412231  0.51008149  0.06831995     0.07800
H1682       H  0.56057557  0.51040957  0.06780841     0.11500
H1683       H  0.54837337  0.98674778  0.93122858     0.11300
H1684       H  0.59149664  0.98530015  0.93198886     0.07800
C1685       C  0.84902970  0.97787795  0.01598942    -0.11300
C1686       C  0.87302562  0.50109167  0.00105715     0.05900
C1687       C  0.87165422  0.52410944  0.98639829    -0.10000
C1688       C  0.84670066  0.52401121  0.98692816    -0.11700
C1689       C  0.82255924  0.00066763  0.00130618    -0.01500
C1690       C  0.82394573  0.97755816  0.01570045    -0.10600
C1691       C  0.89941861  0.50123298  0.00015215     0.05900
H1692       H  0.88997996  0.54225558  0.97490423     0.07800
H1693       H  0.84622907  0.54207013  0.97552954     0.11300
H1694       H  0.80568239  0.95932112  0.02709224     0.11500
H1695       H  0.84964763  0.95985312  0.02718578     0.07800
C1696       C  0.90950554  0.49484233  0.03814112    -0.11300
C1697       C  0.93468262  0.49537496  0.03718920    -0.10600
C1698       C  0.94985618  0.50188052  0.99809475    -0.01500
C1699       C  0.93950564  0.00769801  0.95994262    -0.11700
C1700       C  0.91464817  0.00772999  0.96109021    -0.10100
H1701       H  0.89805045  0.48977655  0.06859191     0.07800
H1702       H  0.94227545  0.49051496  0.06677474     0.11500
H1703       H  0.95049814  0.01184736  0.92917139     0.11300
H1704       H  0.90701483  0.01231681  0.93128539     0.07800
C1705       C  0.51026080  0.59439329  0.46281497    -0.11300
C1706       C  0.49988774  0.60190380  0.49887590     0.05900
C1707       C  0.98952562  0.58409936  0.53519678    -0.10000
C1708       C  0.98963920  0.55929625  0.53552165    -0.11700
C1709       C  0.49981900  0.55175445  0.49933999    -0.01500
C1710       C  0.51008241  0.56943349  0.46295485    -0.10600
C1711       C  0.49983858  0.62823116  0.49867640     0.05900
H1712       H  0.98168667  0.58956626  0.56357149     0.07800
H1713       H  0.98181675  0.54594725  0.56397784     0.11300
H1714       H  0.51785415  0.56380990  0.43466791     0.11500
H1715       H  0.51811676  0.60765472  0.43427319     0.07800
C1716       C  0.52330743  0.65267027  0.48563815    -0.11300
C1717       C  0.52338497  0.67759609  0.48629002    -0.10600
C1718       C  0.49985448  0.67845922  0.49939817    -0.01500
C1719       C  0.97628799  0.65394063  0.51193013    -0.11700
C1720       C  0.97634429  0.62910169  0.51184662    -0.10100
H1721       H  0.54173744  0.65254210  0.47563034     0.07800
H1722       H  0.54179399  0.69615646  0.47626806     0.11500
H1723       H  0.95786665  0.65398656  0.52222774     0.11300
H1724       H  0.95791248  0.61048818  0.52164859     0.07800
C1725       C  0.97463307  0.84668682  0.49041004    -0.11300
C1726       C  0.49862837  0.87139621  0.50076051     0.05900
C1727       C  0.52275853  0.87088064  0.51134280    -0.10000
C1728       C  0.52296527  0.84610499  0.51121538    -0.11700
C1729       C  0.49892850  0.82131590  0.50111565    -0.01500
C1730       C  0.97472258  0.82184368  0.49089571    -0.10600
C1731       C  0.49854076  0.89768436  0.50045167     0.05900
H1732       H  0.54156108  0.88972757  0.51911561     0.07800
H1733       H  0.54190826  0.84634159  0.51930447     0.11300
H1734       H  0.95590291  0.80308454  0.48287759     0.11500
H1735       H  0.95573381  0.84658296  0.48245269     0.07800
C1736       C  0.98729459  0.90467315  0.46460719    -0.11300
C1737       C  0.98766629  0.92972845  0.46401955    -0.10600
C1738       C  0.49884260  0.94794381  0.49960759    -0.01500
C1739       C  0.50978947  0.94084237  0.53565837    -0.11700
C1740       C  0.50986247  0.91601978  0.53591389    -0.10100
H1741       H  0.97865919  0.89094387  0.43674922     0.07800
H1742       H  0.97928306  0.93497553  0.43582863     0.11500
H1743       H  0.51828434  0.95457095  0.56354765     0.11300
H1744       H  0.51842469  0.91094742  0.56406316     0.07800
C1745       C  0.97742699  0.74253608  0.79832251    -0.11300
C1746       C  0.50195270  0.75091266  0.77505705     0.05900
C1747       C  0.52651802  0.75990893  0.79904278    -0.10000
C1748       C  0.52651172  0.76042486  0.84506038    -0.11700
C1749       C  0.50190544  0.75169417  0.86816834    -0.01500
C1750       C  0.97738376  0.74279399  0.84427279    -0.10600
C1751       C  0.50184065  0.75033429  0.72605121     0.05900
H1752       H  0.54572777  0.76612968  0.78232456     0.07800
H1753       H  0.54572922  0.76728027  0.86253452     0.11300
H1754       H  0.95809994  0.73613555  0.86107507     0.11500
H1755       H  0.95822483  0.73605710  0.78104985     0.07800
C1756       C  0.97934309  0.72950462  0.70280819    -0.11300
C1757       C  0.97884445  0.72942251  0.65681757    -0.10600
C1758       C  0.50103571  0.74986022  0.63301374    -0.01500
C1759       C  0.52375417  0.77037681  0.65602585    -0.11700
C1760       C  0.52406028  0.77075276  0.70202366    -0.10100
H1761       H  0.96215264  0.71309581  0.72011887     0.07800
H1762       H  0.96122057  0.71316647  0.63985264     0.11500
H1763       H  0.54106092  0.78649083  0.63843614     0.11300
H1764       H  0.54151132  0.78736436  0.71869649     0.13800
C1765       C  0.52168550  0.76885543  0.20300684    -0.11300
C1766       C  0.49830398  0.74945645  0.22611310     0.05900
C1767       C  0.97524613  0.73016607  0.20199390    -0.10000
C1768       C  0.97561362  0.73026416  0.15598315    -0.11700
C1769       C  0.49916154  0.74940330  0.13309946    -0.01500
C1770       C  0.52218194  0.76868775  0.15707619    -0.10600
C1771       C  0.49815821  0.74926427  0.27509917     0.05900
H1772       H  0.95704919  0.71466535  0.21862611     0.07800
H1773       H  0.95760196  0.71507778  0.13832873     0.11300
H1774       H  0.54049737  0.78391713  0.14030806     0.11500
H1775       H  0.53958245  0.78441433  0.22037848     0.07800
C1776       C  0.52222890  0.75573209  0.29888244    -0.11300
C1777       C  0.52235411  0.75601782  0.34481443    -0.10600
C1778       C  0.49832922  0.74949013  0.36816177    -0.01500
C1779       C  0.97413414  0.74265154  0.34457883    -0.11700
C1780       C  0.97408461  0.74269420  0.29854636    -0.10100
H1781       H  0.54097961  0.76027860  0.28203807     0.07800
H1782       H  0.54125168  0.76107468  0.36205838     0.11500
H1783       H  0.95532119  0.73763469  0.36168992     0.11300
H1784       H  0.95527780  0.73800222  0.28137463     0.07800
C1785       C  0.98059899  0.63094666  0.98112853    -0.11300
C1786       C  0.50362535  0.62995176  0.99699515     0.05900
C1787       C  0.52615796  0.65395103  0.01370766    -0.10000
C1788       C  0.52575758  0.67866027  0.01416766    -0.11700
C1789       C  0.00255809  0.67962173  0.99880790    -0.01500
C1790       C  0.97994708  0.65548913  0.98243402    -0.10600
C1791       C  0.50390357  0.60378602  0.99647581     0.05900
H1792       H  0.54415203  0.65359883  0.02596404     0.07800
H1793       H  0.54344508  0.69692815  0.02705594     0.11300
H1794       H  0.96185272  0.65564616  0.97020896     0.11500
H1795       H  0.96294829  0.61259784  0.96833070     0.07800
C1796       C  0.99858751  0.58880004  0.95724333    -0.11300
C1797       C  0.99824102  0.56375066  0.95693821    -0.10600
C1798       C  0.50230185  0.55293206  0.99609352    -0.01500
C1799       C  0.50791459  0.56799345  0.03522552    -0.11700
C1800       C  0.50895475  0.59338894  0.03535208    -0.10100
H1801       H  0.99498840  0.59665089  0.92681609     0.07800
H1802       H  0.99473898  0.55275525  0.92622902     0.11500
H1803       H  0.51145046  0.56002989  0.06558260     0.11300
H1804       H  0.51309824  0.60465184  0.06593869     0.07800
C1805       C  0.50937694  0.91594790  0.03791541    -0.11300
C1806       C  0.99853474  0.89766660  0.00226880     0.05900
C1807       C  0.98814414  0.90496912  0.96560858    -0.10000
C1808       C  0.98893121  0.93023441  0.96439004    -0.11700
C1809       C  0.49976334  0.94843460  0.00004502    -0.01500
C1810       C  0.50978745  0.94101992  0.03693616    -0.10600
C1811       C  0.99851349  0.87126975  0.00299510     0.05900
H1812       H  0.97990497  0.89134873  0.93755407     0.07800
H1813       H  0.98114132  0.93565893  0.93563490     0.11300
H1814       H  0.51783094  0.95463706  0.06502057     0.11500
H1815       H  0.51723176  0.91067403  0.06674952     0.07800
C1816       C  0.52215688  0.87050826  0.01619792    -0.11300
C1817       C  0.52249788  0.84580103  0.01571653    -0.10600
C1818       C  0.99907248  0.82127132  0.00258812    -0.01500
C1819       C  0.97526336  0.82195357  0.99005479    -0.11700
C1820       C  0.97505665  0.84675789  0.98994732    -0.10100
H1821       H  0.54057397  0.88915264  0.02608862     0.07800
H1822       H  0.54109948  0.84589407  0.02576083     0.11500
H1823       H  0.95691033  0.80337818  0.97976558     0.11300
H1824       H  0.95649356  0.84677260  0.97998516     0.07800
loop_ 
_geom_bond_atom_site_label_1 
_geom_bond_atom_site_label_2 
_geom_bond_distance 
_geom_bond_site_symmetry_2 
_ccdc_geom_bond_type 
O1           Ni9   1.917   1_554  S
O1          C923   1.281       .  A
O2           Ni9   1.912       .  S
O2          C924   1.281       .  A
O3           Ni9   1.918       .  S
O3           C13   1.282       .  A
O4           Ni9   1.919   1_554  S
O4           C14   1.282       .  A
O5          Ni10   1.916       .  S
O5          C926   1.281   1_455  A
O6          Ni10   1.918       .  S
O6          C925   1.281   1_554  A
O7          Ni10   1.920   1_556  S
O7           C12   1.282       .  A
O8          Ni10   1.915       .  S
O8           C11   1.281   1_455  A
Ni9        Ni922   2.387   1_556  S
Ni10       Ni921   2.387   1_454  S
C11         O913   1.281       .  A
C11         C401   1.477       .  S
C12         O914   1.281   1_455  A
C12         C381   1.480       .  S
C13         O918   1.281   1_556  A
C13         C421   1.479       .  S
C14         O917   1.281       .  A
C14         C450   1.479       .  S
O15         Ni23   1.917       .  S
O15          C25   1.282   1_455  A
O16         Ni23   1.917       .  S
O16          C26   1.282   1_455  A
O17         Ni23   1.915       .  S
O17          C27   1.281       .  A
O18         Ni23   1.914       .  S
O18          C28   1.281   1_455  A
O19         Ni24   1.918       .  S
O19         C940   1.282       .  A
O20         Ni24   1.918       .  S
O20         C939   1.282       .  A
O21         Ni24   1.916       .  S
O21         C938   1.281       .  A
O22         Ni24   1.914       .  S
O22         C937   1.281       .  A
Ni23       Ni936   2.388   1_455  S
Ni24       Ni935   2.388       .  S
C25         O934   1.281       .  A
C25         C350   1.477       .  S
C26         O933   1.281       .  A
C26         C361   1.479       .  S
C27         O932   1.282   1_455  A
C27         C390   1.476       .  S
C28         O931   1.282       .  A
C28         C410   1.479       .  S
C29         C281   1.488       .  S
C29         C942   1.415       .  A
C29         C490   1.415       .  A
C30         C441   1.488   1_456  S
C30         C941   1.415   1_455  A
C30         C487   1.415       .  A
C31         C310   1.482   1_545  S
C31          C32   1.414       .  A
C31         C486   1.415   1_545  A
C32         C270   1.485       .  S
C32          C33   1.412       .  A
C33         C430   1.483       .  S
C33         C946   1.414   1_455  A
C34         C330   1.484       .  S
C34         C485   1.415   1_545  A
C34         C945   1.414       .  A
C35         C201   1.488       .  S
C35         C948   1.414       .  A
C35         C496   1.415       .  A
C36         C370   1.487       .  S
C36         C947   1.414       .  A
C36         C493   1.415   1_655  A
C37         C221   1.486       .  S
C37          C38   1.416   1_565  A
C37         C492   1.415   1_455  A
C38         C190   1.489       .  S
C38          C39   1.415   1_455  A
C39         C341   1.486       .  S
C39         C952   1.415       .  A
C40         C250   1.486       .  S
C40         C491   1.415   1_545  A
C40         C951   1.415       .  A
O41         Ni49   1.916       .  S
O41         C507   1.282       .  A
O42         Ni49   1.916   1_556  S
O42         C508   1.282       .  A
O43         Ni49   1.916       .  S
O43          C53   1.281       .  A
O44         Ni49   1.915       .  S
O44          C54   1.281       .  A
O45         Ni50   1.918       .  S
O45         C510   1.282   1_545  A
O46         Ni50   1.917       .  S
O46         C509   1.282       .  A
O47         Ni50   1.917   1_556  S
O47          C52   1.282       .  A
O48         Ni50   1.917       .  S
O48          C51   1.282   1_545  A
Ni49       Ni506   2.387       .  S
Ni50       Ni505   2.387   1_545  S
C51         O497   1.282       .  A
C51         C170   1.481       .  S
C52         O498   1.282   1_545  A
C52         C150   1.480       .  S
C53         O502   1.282       .  A
C53         C321   1.478       .  S
C54         O501   1.282       .  A
C54         C757   1.477       .  S
O55         Ni63   1.917       .  S
O55         C521   1.282       .  A
O56         Ni63   1.917       .  S
O56         C522   1.281       .  A
O57         Ni63   1.916       .  S
O57         C523   1.282       .  A
O58         Ni63   1.915       .  S
O58         C524   1.281       .  A
O59         Ni64   1.914       .  S
O59          C68   1.281   1_545  A
O60         Ni64   1.913       .  S
O60          C67   1.281   1_545  A
O61         Ni64   1.915       .  S
O61          C66   1.281   1_545  A
O62         Ni64   1.915       .  S
O62          C65   1.281   1_545  A
Ni63       Ni520   2.389       .  S
Ni64       Ni519   2.389   1_545  S
C65         O511   1.282       .  A
C65         C141   1.476       .  S
C66         O512   1.281       .  A
C66         C161   1.473       .  S
C67         O513   1.282       .  A
C67         C241   1.477       .  S
C68         O514   1.281       .  A
C68         C230   1.477       .  S
O69         Ni77   1.914       .  S
O69          C79   1.281       .  A
O70         Ni77   1.919   1_556  S
O70          C80   1.282       .  A
O71         Ni77   1.920       .  S
O71          C81   1.282       .  A
O72         Ni77   1.915   1_556  S
O72          C82   1.281       .  A
O73         Ni78   1.921       .  S
O73          C82   1.282       .  A
O74         Ni78   1.916   1_554  S
O74          C81   1.281       .  A
O75         Ni78   1.914       .  S
O75          C80   1.281       .  A
O76         Ni78   1.920   1_554  S
O76          C79   1.282       .  A
Ni77        Ni78   2.388   1_554  S
C79         C121   1.480       .  S
C80         C101   1.473       .  S
C81         C290   1.480       .  S
C82         C261   1.477       .  S
O83         Ni91   1.918       .  S
O83          C93   1.282       .  A
O84         Ni91   1.915       .  S
O84          C94   1.281       .  A
O85         Ni91   1.918       .  S
O85          C95   1.282       .  A
O86         Ni91   1.918       .  S
O86          C96   1.282       .  A
O87         Ni92   1.915       .  S
O87          C96   1.281       .  A
O88         Ni92   1.916       .  S
O88          C95   1.282       .  A
O89         Ni92   1.917       .  S
O89          C94   1.282       .  A
O90         Ni92   1.915       .  S
O90          C93   1.281       .  A
Ni91        Ni92   2.387       .  S
C93         C181   1.480       .  S
C94         C210   1.479       .  S
C95         C110   1.482       .  S
C96         C130   1.477       .  S
C97          C98   1.408       .  A
C97         C102   1.397       .  A
C97         H107   1.082       .  S
C98         C103   1.490       .  S
C98          C99   1.409       .  A
C99         C100   1.398       .  A
C99         H104   1.082       .  S
C100        C101   1.402       .  A
C100        H105   1.083       .  S
C101        C102   1.402       .  A
C102        H106   1.083       .  S
C103        C108   1.407       .  A
C103        C112   1.407       .  A
C108        C109   1.398       .  A
C108        H113   1.082       .  S
C109        C110   1.405       .  A
C109        H114   1.083       .  S
C110        C111   1.405       .  A
C111        C112   1.398       .  A
C111        H115   1.083       .  S
C112        H116   1.082       .  S
C117        C118   1.407       .  A
C117        C122   1.399       .  A
C117        H127   1.082       .  S
C118        C123   1.488       .  S
C118        C119   1.406       .  A
C119        C120   1.396       .  A
C119        H124   1.083       .  S
C120        C121   1.405       .  A
C120        H125   1.083       .  S
C121        C122   1.405       .  A
C122        H126   1.083       .  S
C123        C128   1.407       .  A
C123        C132   1.407       .  A
C128        C129   1.397       .  A
C128        H133   1.082       .  S
C129        C130   1.403       .  A
C129        H134   1.083       .  S
C130        C131   1.405       .  A
C131        C132   1.398       .  A
C131        H135   1.083       .  S
C132        H136   1.083       .  S
C137        C138   1.407   1_545  A
C137        C142   1.398       .  A
C137        H147   1.083       .  S
C138        C143   1.488       .  S
C138        C595   1.407       .  A
C139        C140   1.397       .  A
C139        C594   1.407       .  A
C139        H144   1.082       .  S
C140        C597   1.403       .  A
C140        H145   1.083       .  S
C141        C142   1.404   1_565  A
C141        C596   1.403       .  A
C142        H146   1.083       .  S
C143        C148   1.407   1_565  A
C143        C608   1.406       .  A
C148        C149   1.398       .  A
C148        H153   1.082       .  S
C149        C150   1.405       .  A
C149        H154   1.083       .  S
C150        C607   1.405   1_545  A
C151        C152   1.397       .  A
C151        C606   1.405       .  A
C151        H155   1.083       .  S
C152        C599   1.406       .  A
C152        H156   1.082       .  S
C157        C162   1.398       .  A
C157        C614   1.408       .  A
C157        H167   1.082       .  S
C158        C163   1.490       .  S
C158        C159   1.408   1_565  A
C158        C613   1.408       .  A
C159        C160   1.397       .  A
C159        H164   1.082       .  S
C160        C161   1.403   1_545  A
C160        H165   1.083       .  S
C161        C618   1.402       .  A
C162        C617   1.402       .  A
C162        H166   1.083       .  S
C163        C168   1.407       .  A
C163        C628   1.407   1_565  A
C168        C169   1.397       .  A
C168        H173   1.082       .  S
C169        C170   1.405       .  A
C169        H174   1.083       .  S
C170        C627   1.405   1_565  A
C171        C172   1.398       .  A
C171        C626   1.405       .  A
C171        H175   1.083       .  S
C172        C619   1.407       .  A
C172        H176   1.082       .  S
C177        C178   1.404       .  A
C177        C182   1.398       .  A
C177        H187   1.083       .  S
C178        C183   1.479       .  S
C178        C179   1.404       .  A
C179        C180   1.397       .  A
C179        H184   1.083       .  S
C180        C181   1.406       .  A
C180        H185   1.083       .  S
C181        C182   1.406       .  A
C182        H186   1.083       .  S
C183        C188   1.405       .  A
C183        C192   1.404       .  A
C188        C189   1.397       .  A
C188        H193   1.083       .  S
C189        C190   1.404       .  A
C189        H194   1.083       .  S
C190        C191   1.404       .  A
C191        C192   1.396       .  A
C191        H195   1.083       .  S
C192        H196   1.083       .  S
C197        C198   1.405       .  A
C197        C202   1.397       .  A
C197        H207   1.083       .  S
C198        C203   1.480       .  S
C198        C199   1.405       .  A
C199        C200   1.396       .  A
C199        H204   1.083       .  S
C200        C201   1.403       .  A
C200        H205   1.083       .  S
C201        C202   1.403       .  A
C202        H206   1.083       .  S
C203        C208   1.404       .  A
C203        C212   1.404       .  A
C208        C209   1.398       .  A
C208        H213   1.083       .  S
C209        C210   1.406       .  A
C209        H214   1.083       .  S
C210        C211   1.405       .  A
C211        C212   1.397       .  A
C211        H215   1.083       .  S
C212        H216   1.083       .  S
C217        C218   1.404   1_545  A
C217        C222   1.396       .  A
C217        H227   1.083       .  S
C218        C223   1.477       .  S
C218        C675   1.404       .  A
C219        C220   1.396       .  A
C219        C674   1.404       .  A
C219        H224   1.083       .  S
C220        C677   1.403       .  A
C220        H225   1.083       .  S
C221        C222   1.403   1_565  A
C221        C676   1.403       .  A
C222        H226   1.083       .  S
C223        C228   1.403   1_565  A
C223        C688   1.404       .  A
C228        C229   1.396       .  A
C228        H233   1.083       .  S
C229        C230   1.405   1_545  A
C229        H234   1.083       .  S
C230        C687   1.406       .  A
C231        C232   1.398       .  A
C231        C686   1.406       .  A
C231        H235   1.083       .  S
C232        C679   1.404       .  A
C232        H236   1.083       .  S
C237        C242   1.396       .  A
C237        C694   1.403       .  A
C237        H247   1.083       .  S
C238        C243   1.476       .  S
C238        C239   1.403       .  A
C238        C693   1.403   1_545  A
C239        C240   1.396       .  A
C239        H244   1.083       .  S
C240        C241   1.406   1_545  A
C240        H245   1.083       .  S
C241        C698   1.405       .  A
C242        C697   1.405       .  A
C242        H246   1.083       .  S
C243        C248   1.404   1_545  A
C243        C708   1.404       .  A
C248        C249   1.396       .  A
C248        H253   1.083       .  S
C249        C250   1.403   1_565  A
C249        H254   1.083       .  S
C250        C707   1.403       .  A
C251        C252   1.396       .  A
C251        C706   1.403       .  A
C251        H255   1.083       .  S
C252        C699   1.404       .  A
C252        H256   1.083       .  S
C257        C258   1.404   1_554  A
C257        C262   1.398       .  A
C257        H267   1.083       .  S
C258        C263   1.480       .  S
C258        C259   1.404       .  A
C259        C260   1.399       .  A
C259        H264   1.083       .  S
C260        C261   1.405       .  A
C260        H265   1.083       .  S
C261        C262   1.405   1_556  A
C262        H266   1.083       .  S
C263        C268   1.404   1_556  A
C263        C272   1.405       .  A
C268        C269   1.397       .  A
C268        H273   1.083       .  S
C269        C270   1.402   1_554  A
C269        H274   1.083       .  S
C270        C271   1.403       .  A
C271        C272   1.400       .  A
C271        H275   1.083       .  S
C272        H276   1.083       .  S
C277        C278   1.405       .  A
C277        C282   1.397       .  A
C277        H287   1.083       .  S
C278        C283   1.481       .  S
C278        C279   1.405   1_554  A
C279        C280   1.397       .  A
C279        H284   1.083       .  S
C280        C281   1.403       .  A
C280        H285   1.083       .  S
C281        C282   1.403   1_556  A
C282        H286   1.083       .  S
C283        C288   1.404       .  A
C283        C292   1.404   1_554  A
C288        C289   1.398       .  A
C288        H293   1.083       .  S
C289        C290   1.406       .  A
C289        H294   1.083       .  S
C290        C291   1.406   1_554  A
C291        C292   1.398       .  A
C291        H295   1.083       .  S
C292        H296   1.083       .  S
C297        C302   1.397       .  A
C297        C754   1.404   1_545  A
C297        H307   1.083       .  S
C298        C303   1.477       .  S
C298        C299   1.403   1_554  A
C298        C753   1.404       .  A
C299        C300   1.398       .  A
C299        H304   1.083       .  S
C300        C757   1.406   1_556  A
C300        H305   1.083       .  S
C301        C510   1.477       .  S
C301        C302   1.405   1_565  A
C301        C756   1.406   1_554  A
C302        H306   1.083       .  S
C303        C312   1.405   1_554  A
C303        C764   1.404       .  A
C308        C309   1.395       .  A
C308        C759   1.404   1_545  A
C308        H313   1.083       .  S
C309        C310   1.402   1_544  A
C309        H314   1.082       .  S
C310        C767   1.402       .  A
C311        C312   1.398       .  A
C311        C766   1.402       .  A
C311        H315   1.083       .  S
C312        H316   1.083       .  S
C317        C322   1.398       .  A
C317        C774   1.403       .  A
C317        H327   1.083       .  S
C318        C323   1.477       .  S
C318        C319   1.403   1_554  A
C318        C773   1.403   1_545  A
C319        C320   1.398       .  A
C319        H324   1.083       .  S
C320        C777   1.405   1_556  A
C320        H325   1.083       .  S
C321        C322   1.406       .  A
C321        C776   1.405   1_554  A
C322        H326   1.083       .  S
C323        C328   1.404   1_545  A
C323        C788   1.404   1_554  A
C328        C329   1.398       .  A
C328        H333   1.083       .  S
C329        C330   1.403   1_564  A
C329        H334   1.083       .  S
C330        C787   1.402       .  A
C331        C332   1.396       .  A
C331        C786   1.402       .  A
C331        H335   1.082       .  S
C332        C779   1.404   1_556  A
C332        H336   1.083       .  S
C337        C338   1.405   1_455  A
C337        C342   1.397       .  A
C337        H347   1.083       .  S
C338        C343   1.480       .  S
C338       C1251   1.405       .  A
C339        C340   1.396       .  A
C339       C1250   1.405       .  A
C339        H344   1.083       .  S
C340       C1253   1.403       .  A
C340        H345   1.083       .  S
C341        C342   1.403   1_655  A
C341       C1252   1.403       .  A
C342        H346   1.083       .  S
C343        C348   1.405   1_655  A
C343       C1264   1.404       .  A
C348        C349   1.398       .  A
C348        H353   1.083       .  S
C349        C350   1.405   1_455  A
C349        H354   1.083       .  S
C350       C1263   1.405       .  A
C351        C352   1.396       .  A
C351       C1262   1.405       .  A
C351        H355   1.083       .  S
C352       C1255   1.404       .  A
C352        H356   1.083       .  S
C357        C362   1.398       .  A
C357       C1270   1.404       .  A
C357        H367   1.083       .  S
C358        C363   1.479       .  S
C358        C359   1.404   1_655  A
C358       C1269   1.404       .  A
C359        C360   1.397       .  A
C359        H364   1.083       .  S
C360        C361   1.405   1_455  A
C360        H365   1.083       .  S
C361       C1274   1.406       .  A
C362       C1273   1.406       .  A
C362        H366   1.083       .  S
C363        C372   1.404   1_655  A
C363       C1280   1.405       .  A
C368        C369   1.397       .  A
C368       C1275   1.405       .  A
C368        H373   1.083       .  S
C369       C1282   1.403       .  A
C369        H374   1.083       .  S
C370        C371   1.403   1_655  A
C370       C1281   1.403       .  A
C371        C372   1.396       .  A
C371        H375   1.083       .  S
C372        H376   1.083       .  S
C377        C382   1.396       .  A
C377       C1290   1.406       .  A
C377        H387   1.082       .  S
C378        C383   1.489       .  S
C378        C379   1.408       .  A
C378       C1289   1.406   1_455  A
C379        C380   1.399       .  A
C379        H384   1.082       .  S
C380        C381   1.405       .  A
C380        H385   1.083       .  S
C381       C1294   1.405   1_455  A
C382       C1293   1.405       .  A
C382        H386   1.083       .  S
C383        C392   1.407       .  A
C383       C1300   1.408   1_455  A
C388        C389   1.397       .  A
C388       C1295   1.408       .  A
C388        H393   1.082       .  S
C389       C1302   1.403       .  A
C389        H394   1.083       .  S
C390        C391   1.404       .  A
C390       C1301   1.403   1_455  A
C391        C392   1.398       .  A
C391        H395   1.083       .  S
C392        H396   1.082       .  S
C397        C398   1.407   1_455  A
C397        C402   1.396       .  A
C397        H407   1.082       .  S
C398        C403   1.488       .  S
C398       C1311   1.407       .  A
C399        C400   1.398       .  A
C399       C1310   1.407       .  A
C399        H404   1.082       .  S
C400       C1313   1.404       .  A
C400        H405   1.083       .  S
C401        C402   1.404   1_655  A
C401       C1312   1.404       .  A
C402        H406   1.083       .  S
C403        C408   1.407   1_655  A
C403       C1324   1.407       .  A
C408        C409   1.396       .  A
C408        H413   1.082       .  S
C409        C410   1.404   1_455  A
C409        H414   1.083       .  S
C410       C1323   1.405       .  A
C411        C412   1.399       .  A
C411       C1322   1.405       .  A
C411        H415   1.083       .  S
C412       C1315   1.407       .  A
C412        H416   1.082       .  S
C417        C422   1.398       .  A
C417       C1330   1.403       .  A
C417        H427   1.083       .  S
C418        C423   1.477       .  S
C418        C419   1.403   1_556  A
C418       C1329   1.403   1_455  A
C419        C420   1.399       .  A
C419        H424   1.083       .  S
C420       C1333   1.406   1_554  A
C420        H425   1.083       .  S
C421        C422   1.405       .  A
C421       C1332   1.406   1_556  A
C422        H426   1.083       .  S
C423        C432   1.404   1_556  A
C423       C1340   1.404   1_455  A
C428        C429   1.397       .  A
C428       C1335   1.404       .  A
C428        H433   1.083       .  S
C429       C1342   1.402       .  A
C429        H434   1.082       .  S
C430        C431   1.402   1_556  A
C430       C1341   1.402   1_455  A
C431        C432   1.398       .  A
C431        H435   1.083       .  S
C432        H436   1.083       .  S
C437        C442   1.397       .  A
C437       C1350   1.405   1_455  A
C437        H447   1.083       .  S
C438        C443   1.482       .  S
C438        C439   1.405   1_554  A
C438       C1349   1.405       .  A
C439        C440   1.398       .  A
C439        H444   1.083       .  S
C440       C1353   1.403   1_556  A
C440        H445   1.083       .  S
C441        C442   1.403   1_655  A
C441       C1352   1.403   1_554  A
C442        H446   1.083       .  S
C443        C452   1.405   1_554  A
C443       C1360   1.404       .  A
C448        C449   1.397       .  A
C448       C1355   1.404   1_455  A
C448        H453   1.083       .  S
C449       C1362   1.405   1_455  A
C449        H454   1.083       .  S
C450        C451   1.406   1_554  A
C450       C1361   1.405       .  A
C451        C452   1.399       .  A
C451        H455   1.083       .  S
C452        H456   1.083       .  S
O457       Ni465   1.917   1_554  S
O457       C1379   1.281       .  A
O458       Ni465   1.912       .  S
O458       C1380   1.281       .  A
O459       Ni465   1.918       .  S
O459        C469   1.282       .  A
O460       Ni465   1.919   1_554  S
O460        C470   1.282       .  A
O461       Ni466   1.916       .  S
O461       C1382   1.281   1_455  A
O462       Ni466   1.918       .  S
O462       C1381   1.281   1_554  A
O463       Ni466   1.920   1_556  S
O463        C468   1.282       .  A
O464       Ni466   1.915       .  S
O464        C467   1.281   1_455  A
Ni465     Ni1378   2.387   1_556  S
Ni466     Ni1377   2.387   1_454  S
C467       O1369   1.281       .  A
C467        C857   1.477       .  S
C468       O1370   1.281   1_455  A
C468        C837   1.480       .  S
C469       O1374   1.281   1_556  A
C469        C877   1.479       .  S
C470       O1373   1.281       .  A
C470        C906   1.479       .  S
O471       Ni479   1.917       .  S
O471        C481   1.282   1_455  A
O472       Ni479   1.917       .  S
O472        C482   1.282   1_455  A
O473       Ni479   1.915       .  S
O473        C483   1.281       .  A
O474       Ni479   1.914       .  S
O474        C484   1.281   1_455  A
O475       Ni480   1.918       .  S
O475       C1396   1.282       .  A
O476       Ni480   1.918       .  S
O476       C1395   1.282       .  A
O477       Ni480   1.916       .  S
O477       C1394   1.281       .  A
O478       Ni480   1.914       .  S
O478       C1393   1.281       .  A
Ni479     Ni1392   2.388   1_455  S
Ni480     Ni1391   2.388       .  S
C481       O1390   1.281       .  A
C481        C806   1.477       .  S
C482       O1389   1.281       .  A
C482        C817   1.479       .  S
C483       O1388   1.282   1_455  A
C483        C846   1.476       .  S
C484       O1387   1.282       .  A
C484        C866   1.479       .  S
C485        C737   1.488       .  S
C485       C1398   1.415       .  A
C486        C897   1.488   1_456  S
C486       C1397   1.415   1_455  A
C487        C766   1.482       .  S
C487        C488   1.414       .  A
C488        C726   1.485       .  S
C488        C489   1.412       .  A
C489        C886   1.483       .  S
C489       C1402   1.414   1_455  A
C490        C786   1.484       .  S
C490       C1401   1.414       .  A
C491        C657   1.488       .  S
C491       C1404   1.414       .  A
C492        C826   1.487       .  S
C492       C1403   1.414       .  A
C493        C677   1.486       .  S
C493        C494   1.416       .  A
C494        C646   1.489       .  S
C494        C495   1.415   1_455  A
C495        C797   1.486       .  S
C495       C1408   1.415       .  A
C496        C706   1.486       .  S
C496       C1407   1.415       .  A
O497       Ni505   1.916       .  S
O498       Ni505   1.916   1_556  S
O499       Ni505   1.916       .  S
O499        C509   1.281   1_565  A
O500       Ni505   1.915       .  S
O500        C510   1.281       .  A
O501       Ni506   1.918       .  S
O502       Ni506   1.917       .  S
O503       Ni506   1.917   1_556  S
O503        C508   1.282       .  A
O504       Ni506   1.917       .  S
O504        C507   1.282       .  A
C507        C626   1.481       .  S
C508        C606   1.480       .  S
C509        C777   1.478       .  S
O511       Ni519   1.917       .  S
O512       Ni519   1.917       .  S
O513       Ni519   1.916       .  S
O514       Ni519   1.915       .  S
O515       Ni520   1.914       .  S
O515        C524   1.281       .  A
O516       Ni520   1.913       .  S
O516        C523   1.281       .  A
O517       Ni520   1.915       .  S
O517        C522   1.281       .  A
O518       Ni520   1.915       .  S
O518        C521   1.281       .  A
C521        C597   1.476       .  S
C522        C617   1.473       .  S
C523        C697   1.477       .  S
C524        C686   1.477       .  S
O525       Ni533   1.914       .  S
O525        C535   1.281       .  A
O526       Ni533   1.919   1_556  S
O526        C536   1.282       .  A
O527       Ni533   1.920       .  S
O527        C537   1.282       .  A
O528       Ni533   1.915   1_556  S
O528        C538   1.281       .  A
O529       Ni534   1.921       .  S
O529        C538   1.282       .  A
O530       Ni534   1.916   1_554  S
O530        C537   1.281       .  A
O531       Ni534   1.914       .  S
O531        C536   1.281       .  A
O532       Ni534   1.920   1_554  S
O532        C535   1.282       .  A
Ni533      Ni534   2.388   1_554  S
C535        C577   1.480       .  S
C536        C557   1.473       .  S
C537        C746   1.480       .  S
C538        C717   1.477       .  S
O539       Ni547   1.918       .  S
O539        C549   1.282       .  A
O540       Ni547   1.915       .  S
O540        C550   1.281       .  A
O541       Ni547   1.918       .  S
O541        C551   1.282       .  A
O542       Ni547   1.918       .  S
O542        C552   1.282       .  A
O543       Ni548   1.915       .  S
O543        C552   1.281       .  A
O544       Ni548   1.916       .  S
O544        C551   1.282       .  A
O545       Ni548   1.917       .  S
O545        C550   1.282       .  A
O546       Ni548   1.915       .  S
O546        C549   1.281       .  A
Ni547      Ni548   2.387       .  S
C549        C637   1.480       .  S
C550        C666   1.479       .  S
C551        C566   1.482       .  S
C552        C586   1.477       .  S
C553        C554   1.408       .  A
C553        C558   1.397       .  A
C553        H563   1.082       .  S
C554        C559   1.490       .  S
C554        C555   1.409       .  A
C555        C556   1.398       .  A
C555        H560   1.082       .  S
C556        C557   1.402       .  A
C556        H561   1.083       .  S
C557        C558   1.402       .  A
C558        H562   1.083       .  S
C559        C564   1.407       .  A
C559        C568   1.407       .  A
C564        C565   1.398       .  A
C564        H569   1.082       .  S
C565        C566   1.405       .  A
C565        H570   1.083       .  S
C566        C567   1.405       .  A
C567        C568   1.398       .  A
C567        H571   1.083       .  S
C568        H572   1.082       .  S
C573        C574   1.407       .  A
C573        C578   1.399       .  A
C573        H583   1.082       .  S
C574        C579   1.488       .  S
C574        C575   1.406       .  A
C575        C576   1.396       .  A
C575        H580   1.083       .  S
C576        C577   1.405       .  A
C576        H581   1.083       .  S
C577        C578   1.405       .  A
C578        H582   1.083       .  S
C579        C584   1.407       .  A
C579        C588   1.407       .  A
C584        C585   1.397       .  A
C584        H589   1.082       .  S
C585        C586   1.403       .  A
C585        H590   1.083       .  S
C586        C587   1.405       .  A
C587        C588   1.398       .  A
C587        H591   1.083       .  S
C588        H592   1.083       .  S
C593        C594   1.407       .  A
C593        C598   1.398       .  A
C593        H603   1.083       .  S
C594        C599   1.488       .  S
C595        C596   1.397       .  A
C595        H600   1.082       .  S
C596        H601   1.083       .  S
C597        C598   1.404       .  A
C598        H602   1.083       .  S
C599        C604   1.407       .  A
C604        C605   1.398       .  A
C604        H609   1.082       .  S
C605        C606   1.405       .  A
C605        H610   1.083       .  S
C607        C608   1.397       .  A
C607        H611   1.083       .  S
C608        H612   1.082       .  S
C613        C618   1.398       .  A
C613        H623   1.082       .  S
C614        C619   1.490       .  S
C614        C615   1.408       .  A
C615        C616   1.397       .  A
C615        H620   1.082       .  S
C616        C617   1.403       .  A
C616        H621   1.083       .  S
C618        H622   1.083       .  S
C619        C624   1.407       .  A
C624        C625   1.397       .  A
C624        H629   1.082       .  S
C625        C626   1.405       .  A
C625        H630   1.083       .  S
C627        C628   1.398       .  A
C627        H631   1.083       .  S
C628        H632   1.082       .  S
C633        C634   1.404       .  A
C633        C638   1.398       .  A
C633        H643   1.083       .  S
C634        C639   1.479       .  S
C634        C635   1.404       .  A
C635        C636   1.397       .  A
C635        H640   1.083       .  S
C636        C637   1.406       .  A
C636        H641   1.083       .  S
C637        C638   1.406       .  A
C638        H642   1.083       .  S
C639        C644   1.405       .  A
C639        C648   1.404       .  A
C644        C645   1.397       .  A
C644        H649   1.083       .  S
C645        C646   1.404       .  A
C645        H650   1.083       .  S
C646        C647   1.404       .  A
C647        C648   1.396       .  A
C647        H651   1.083       .  S
C648        H652   1.083       .  S
C653        C654   1.405       .  A
C653        C658   1.397       .  A
C653        H663   1.083       .  S
C654        C659   1.480       .  S
C654        C655   1.405       .  A
C655        C656   1.396       .  A
C655        H660   1.083       .  S
C656        C657   1.403       .  A
C656        H661   1.083       .  S
C657        C658   1.403       .  A
C658        H662   1.083       .  S
C659        C664   1.404       .  A
C659        C668   1.404       .  A
C664        C665   1.398       .  A
C664        H669   1.083       .  S
C665        C666   1.406       .  A
C665        H670   1.083       .  S
C666        C667   1.405       .  A
C667        C668   1.397       .  A
C667        H671   1.083       .  S
C668        H672   1.083       .  S
C673        C674   1.404       .  A
C673        C678   1.396       .  A
C673        H683   1.083       .  S
C674        C679   1.477       .  S
C675        C676   1.396       .  A
C675        H680   1.083       .  S
C676        H681   1.083       .  S
C677        C678   1.403       .  A
C678        H682   1.083       .  S
C679        C684   1.403       .  A
C684        C685   1.396       .  A
C684        H689   1.083       .  S
C685        C686   1.405       .  A
C685        H690   1.083       .  S
C687        C688   1.398       .  A
C687        H691   1.083       .  S
C688        H692   1.083       .  S
C693        C698   1.396       .  A
C693        H703   1.083       .  S
C694        C699   1.476       .  S
C694        C695   1.403       .  A
C695        C696   1.396       .  A
C695        H700   1.083       .  S
C696        C697   1.406       .  A
C696        H701   1.083       .  S
C698        H702   1.083       .  S
C699        C704   1.404       .  A
C704        C705   1.396       .  A
C704        H709   1.083       .  S
C705        C706   1.403       .  A
C705        H710   1.083       .  S
C707        C708   1.396       .  A
C707        H711   1.083       .  S
C708        H712   1.083       .  S
C713        C714   1.404   1_554  A
C713        C718   1.398       .  A
C713        H723   1.083       .  S
C714        C719   1.480       .  S
C714        C715   1.404       .  A
C715        C716   1.399       .  A
C715        H720   1.083       .  S
C716        C717   1.405       .  A
C716        H721   1.083       .  S
C717        C718   1.405   1_556  A
C718        H722   1.083       .  S
C719        C724   1.404   1_556  A
C719        C728   1.405       .  A
C724        C725   1.397       .  A
C724        H729   1.083       .  S
C725        C726   1.402   1_554  A
C725        H730   1.083       .  S
C726        C727   1.403       .  A
C727        C728   1.400       .  A
C727        H731   1.083       .  S
C728        H732   1.083       .  S
C733        C734   1.405       .  A
C733        C738   1.397       .  A
C733        H743   1.083       .  S
C734        C739   1.481       .  S
C734        C735   1.405   1_554  A
C735        C736   1.397       .  A
C735        H740   1.083       .  S
C736        C737   1.403       .  A
C736        H741   1.083       .  S
C737        C738   1.403   1_556  A
C738        H742   1.083       .  S
C739        C744   1.404       .  A
C739        C748   1.404   1_554  A
C744        C745   1.398       .  A
C744        H749   1.083       .  S
C745        C746   1.406       .  A
C745        H750   1.083       .  S
C746        C747   1.406   1_554  A
C747        C748   1.398       .  A
C747        H751   1.083       .  S
C748        H752   1.083       .  S
C753        C758   1.397       .  A
C753        H763   1.083       .  S
C754        C759   1.477       .  S
C754        C755   1.403   1_554  A
C755        C756   1.398       .  A
C755        H760   1.083       .  S
C756        H761   1.083       .  S
C757        C758   1.405       .  A
C758        H762   1.083       .  S
C759        C768   1.405   1_554  A
C764        C765   1.395       .  A
C764        H769   1.083       .  S
C765        C766   1.402   1_554  A
C765        H770   1.082       .  S
C767        C768   1.398       .  A
C767        H771   1.083       .  S
C768        H772   1.083       .  S
C773        C778   1.398       .  A
C773        H783   1.083       .  S
C774        C779   1.477       .  S
C774        C775   1.403   1_554  A
C775        C776   1.398       .  A
C775        H780   1.083       .  S
C776        H781   1.083       .  S
C777        C778   1.406   1_545  A
C778        H782   1.083       .  S
C779        C784   1.404       .  A
C784        C785   1.398       .  A
C784        H789   1.083       .  S
C785        C786   1.403   1_554  A
C785        H790   1.083       .  S
C787        C788   1.396       .  A
C787        H791   1.082       .  S
C788        H792   1.083       .  S
C793        C794   1.405   1_455  A
C793        C798   1.397       .  A
C793        H803   1.083       .  S
C794        C799   1.480       .  S
C794       C1707   1.405       .  A
C795       C1706   1.405       .  A
C795        C796   1.396       .  A
C795        H800   1.083       .  S
C796       C1709   1.403       .  A
C796        H801   1.083       .  S
C797       C1708   1.403       .  A
C797        C798   1.403   1_655  A
C798        H802   1.083       .  S
C799        C804   1.405   1_655  A
C799       C1720   1.404       .  A
C804        C805   1.398       .  A
C804        H809   1.083       .  S
C805        C806   1.405   1_455  A
C805        H810   1.083       .  S
C806       C1719   1.405       .  A
C807       C1718   1.405       .  A
C807        C808   1.396       .  A
C807        H811   1.083       .  S
C808       C1711   1.404       .  A
C808        H812   1.083       .  S
C813       C1726   1.404       .  A
C813        C818   1.398       .  A
C813        H823   1.083       .  S
C814        C819   1.479       .  S
C814       C1725   1.404       .  A
C814        C815   1.404   1_655  A
C815        C816   1.397       .  A
C815        H820   1.083       .  S
C816        C817   1.405   1_455  A
C816        H821   1.083       .  S
C817       C1730   1.406       .  A
C818       C1729   1.406       .  A
C818        H822   1.083       .  S
C819       C1736   1.405       .  A
C819        C828   1.404   1_655  A
C824       C1731   1.405       .  A
C824        C825   1.397       .  A
C824        H829   1.083       .  S
C825       C1738   1.403       .  A
C825        H830   1.083       .  S
C826       C1737   1.403       .  A
C826        C827   1.403   1_655  A
C827        C828   1.396       .  A
C827        H831   1.083       .  S
C828        H832   1.083       .  S
C833       C1746   1.406       .  A
C833        C838   1.396       .  A
C833        H843   1.082       .  S
C834        C839   1.489       .  S
C834       C1745   1.406   1_455  A
C834        C835   1.408       .  A
C835        C836   1.399       .  A
C835        H840   1.082       .  S
C836        C837   1.405       .  A
C836        H841   1.083       .  S
C837       C1750   1.405   1_455  A
C838       C1749   1.405       .  A
C838        H842   1.083       .  S
C839       C1756   1.408   1_455  A
C839        C848   1.407       .  A
C844       C1751   1.408       .  A
C844        C845   1.397       .  A
C844        H849   1.082       .  S
C845       C1758   1.403       .  A
C845        H850   1.083       .  S
C846       C1757   1.403   1_455  A
C846        C847   1.404       .  A
C847        C848   1.398       .  A
C847        H851   1.083       .  S
C848        H852   1.082       .  S
C853        C854   1.407   1_455  A
C853        C858   1.396       .  A
C853        H863   1.082       .  S
C854        C859   1.488       .  S
C854       C1767   1.407       .  A
C855       C1766   1.407       .  A
C855        C856   1.398       .  A
C855        H860   1.082       .  S
C856       C1769   1.404       .  A
C856        H861   1.083       .  S
C857       C1768   1.404       .  A
C857        C858   1.404   1_655  A
C858        H862   1.083       .  S
C859        C864   1.407   1_655  A
C859       C1780   1.407       .  A
C864        C865   1.396       .  A
C864        H869   1.082       .  S
C865        C866   1.404   1_455  A
C865        H870   1.083       .  S
C866       C1779   1.405       .  A
C867       C1778   1.405       .  A
C867        C868   1.399       .  A
C867        H871   1.083       .  S
C868       C1771   1.407       .  A
C868        H872   1.082       .  S
C873       C1786   1.403       .  A
C873        C878   1.398       .  A
C873        H883   1.083       .  S
C874        C879   1.477       .  S
C874       C1785   1.403   1_455  A
C874        C875   1.403   1_556  A
C875        C876   1.399       .  A
C875        H880   1.083       .  S
C876       C1789   1.406   1_554  A
C876        H881   1.083       .  S
C877       C1788   1.406   1_556  A
C877        C878   1.405       .  A
C878        H882   1.083       .  S
C879       C1796   1.404   1_455  A
C879        C888   1.404   1_556  A
C884       C1791   1.404       .  A
C884        C885   1.397       .  A
C884        H889   1.083       .  S
C885       C1798   1.402       .  A
C885        H890   1.082       .  S
C886       C1797   1.402   1_455  A
C886        C887   1.402   1_556  A
C887        C888   1.398       .  A
C887        H891   1.083       .  S
C888        H892   1.083       .  S
C893       C1806   1.405   1_455  A
C893        C898   1.397       .  A
C893        H903   1.083       .  S
C894        C899   1.482       .  S
C894       C1805   1.405       .  A
C894        C895   1.406   1_554  A
C895        C896   1.398       .  A
C895        H900   1.083       .  S
C896       C1809   1.403   1_556  A
C896        H901   1.083       .  S
C897       C1808   1.403   1_554  A
C897        C898   1.403   1_655  A
C898        H902   1.083       .  S
C899       C1816   1.404       .  A
C899        C908   1.405   1_554  A
C904       C1811   1.404   1_455  A
C904        C905   1.397       .  A
C904        H909   1.083       .  S
C905       C1818   1.405   1_455  A
C905        H910   1.083       .  S
C906       C1817   1.405       .  A
C906        C907   1.406   1_554  A
C907        C908   1.399       .  A
C907        H911   1.083       .  S
C908        H912   1.083       .  S
O913       Ni921   1.917   1_554  S
O914       Ni921   1.912       .  S
O915       Ni921   1.918       .  S
O915        C925   1.282   1_655  A
O916       Ni921   1.919   1_554  S
O916        C926   1.282       .  A
O917       Ni922   1.916       .  S
O918       Ni922   1.918       .  S
O919       Ni922   1.920   1_556  S
O919        C924   1.282       .  A
O920       Ni922   1.915       .  S
O920        C923   1.281       .  A
C923       C1313   1.477       .  S
C924       C1293   1.480       .  S
C925       C1333   1.479       .  S
C926       C1362   1.479       .  S
O927       Ni935   1.917       .  S
O927        C937   1.282       .  A
O928       Ni935   1.917       .  S
O928        C938   1.282       .  A
O929       Ni935   1.915       .  S
O929        C939   1.281       .  A
O930       Ni935   1.914       .  S
O930        C940   1.281       .  A
O931       Ni936   1.918       .  S
O932       Ni936   1.918       .  S
O933       Ni936   1.916       .  S
O934       Ni936   1.914       .  S
C937       C1262   1.477       .  S
C938       C1273   1.479       .  S
C939       C1302   1.476       .  S
C940       C1322   1.479       .  S
C941       C1193   1.488       .  S
C941       C1402   1.415       .  A
C942       C1353   1.488   1_556  S
C942       C1399   1.415       .  A
C943       C1222   1.482   1_545  S
C943       C1398   1.415   1_545  A
C943        C944   1.414       .  A
C944       C1182   1.485       .  S
C944        C945   1.412       .  A
C945       C1342   1.483       .  S
C946       C1242   1.484       .  S
C946       C1397   1.415   1_545  A
C947       C1113   1.488       .  S
C947       C1408   1.415       .  A
C948       C1282   1.487       .  S
C948       C1405   1.415       .  A
C949       C1133   1.486       .  S
C949       C1404   1.415       .  A
C949        C950   1.416   1_565  A
C950       C1102   1.489       .  S
C950        C951   1.415       .  A
C951       C1253   1.486       .  S
C952       C1162   1.486       .  S
C952       C1403   1.415   1_545  A
O953       Ni961   1.916       .  S
O953       C1419   1.282       .  A
O954       Ni961   1.916   1_556  S
O954       C1420   1.282       .  A
O955       Ni961   1.916       .  S
O955        C965   1.281       .  A
O956       Ni961   1.915       .  S
O956        C966   1.281       .  A
O957       Ni962   1.918       .  S
O957       C1422   1.282   1_545  A
O958       Ni962   1.917       .  S
O958       C1421   1.282       .  A
O959       Ni962   1.917   1_556  S
O959        C964   1.282       .  A
O960       Ni962   1.917       .  S
O960        C963   1.282   1_545  A
Ni961     Ni1418   2.387       .  S
Ni962     Ni1417   2.387   1_545  S
C963       O1409   1.282       .  A
C963       C1082   1.481       .  S
C964       O1410   1.282   1_545  A
C964       C1062   1.480       .  S
C965       O1414   1.282       .  A
C965       C1233   1.478       .  S
C966       O1413   1.282       .  A
C966       C1669   1.477       .  S
O967       Ni975   1.917       .  S
O967       C1433   1.282       .  A
O968       Ni975   1.917       .  S
O968       C1434   1.281       .  A
O969       Ni975   1.916       .  S
O969       C1435   1.282       .  A
O970       Ni975   1.915       .  S
O970       C1436   1.281       .  A
O971       Ni976   1.914       .  S
O971        C980   1.281   1_545  A
O972       Ni976   1.913       .  S
O972        C979   1.281   1_545  A
O973       Ni976   1.915       .  S
O973        C978   1.281   1_545  A
O974       Ni976   1.915       .  S
O974        C977   1.281   1_545  A
Ni975     Ni1432   2.389       .  S
Ni976     Ni1431   2.389   1_545  S
C977       O1423   1.282       .  A
C977       C1053   1.476       .  S
C978       O1424   1.281       .  A
C978       C1073   1.473       .  S
C979       O1425   1.282       .  A
C979       C1153   1.477       .  S
C980       O1426   1.281       .  A
C980       C1142   1.477       .  S
O981       Ni989   1.914       .  S
O981        C991   1.281       .  A
O982       Ni989   1.919   1_556  S
O982        C992   1.282       .  A
O983       Ni989   1.920       .  S
O983        C993   1.282       .  A
O984       Ni989   1.915   1_556  S
O984        C994   1.281       .  A
O985       Ni990   1.921       .  S
O985        C994   1.282       .  A
O986       Ni990   1.916   1_554  S
O986        C993   1.281       .  A
O987       Ni990   1.914       .  S
O987        C992   1.281       .  A
O988       Ni990   1.920   1_554  S
O988        C991   1.282       .  A
Ni989      Ni990   2.388   1_554  S
C991       C1033   1.480       .  S
C992       C1013   1.473       .  S
C993       C1202   1.480       .  S
C994       C1173   1.477       .  S
O995      Ni1003   1.918       .  S
O995       C1005   1.282       .  A
O996      Ni1003   1.915       .  S
O996       C1006   1.281       .  A
O997      Ni1003   1.918       .  S
O997       C1007   1.282       .  A
O998      Ni1003   1.918       .  S
O998       C1008   1.282       .  A
O999      Ni1004   1.915       .  S
O999       C1008   1.281       .  A
O1000     Ni1004   1.916       .  S
O1000      C1007   1.282       .  A
O1001     Ni1004   1.917       .  S
O1001      C1006   1.282       .  A
O1002     Ni1004   1.915       .  S
O1002      C1005   1.281       .  A
Ni1003    Ni1004   2.387       .  S
C1005      C1093   1.480       .  S
C1006      C1122   1.479       .  S
C1007      C1022   1.482       .  S
C1008      C1042   1.477       .  S
C1009      C1010   1.408       .  A
C1009      C1014   1.397       .  A
C1009      H1019   1.082       .  S
C1010      C1015   1.490       .  S
C1010      C1011   1.409       .  A
C1011      C1012   1.398       .  A
C1011      H1016   1.082       .  S
C1012      C1013   1.402       .  A
C1012      H1017   1.083       .  S
C1013      C1014   1.402       .  A
C1014      H1018   1.083       .  S
C1015      C1020   1.407       .  A
C1015      C1024   1.407       .  A
C1020      C1021   1.398       .  A
C1020      H1025   1.082       .  S
C1021      C1022   1.405       .  A
C1021      H1026   1.083       .  S
C1022      C1023   1.405       .  A
C1023      C1024   1.398       .  A
C1023      H1027   1.083       .  S
C1024      H1028   1.082       .  S
C1029      C1030   1.407       .  A
C1029      C1034   1.399       .  A
C1029      H1039   1.082       .  S
C1030      C1035   1.488       .  S
C1030      C1031   1.406       .  A
C1031      C1032   1.396       .  A
C1031      H1036   1.083       .  S
C1032      C1033   1.405       .  A
C1032      H1037   1.083       .  S
C1033      C1034   1.405       .  A
C1034      H1038   1.083       .  S
C1035      C1040   1.407       .  A
C1035      C1044   1.407       .  A
C1040      C1041   1.397       .  A
C1040      H1045   1.082       .  S
C1041      C1042   1.403       .  A
C1041      H1046   1.083       .  S
C1042      C1043   1.405       .  A
C1043      C1044   1.398       .  A
C1043      H1047   1.083       .  S
C1044      H1048   1.083       .  S
C1049      C1050   1.407   1_545  A
C1049      C1054   1.398       .  A
C1049      H1059   1.083       .  S
C1050      C1055   1.488       .  S
C1050      C1507   1.407       .  A
C1051      C1506   1.407       .  A
C1051      C1052   1.397       .  A
C1051      H1056   1.082       .  S
C1052      C1509   1.403       .  A
C1052      H1057   1.083       .  S
C1053      C1508   1.403       .  A
C1053      C1054   1.404   1_565  A
C1054      H1058   1.083       .  S
C1055      C1060   1.407   1_565  A
C1055      C1520   1.406       .  A
C1060      C1061   1.398       .  A
C1060      H1065   1.082       .  S
C1061      C1062   1.405       .  A
C1061      H1066   1.083       .  S
C1062      C1519   1.405   1_545  A
C1063      C1518   1.405       .  A
C1063      C1064   1.397       .  A
C1063      H1067   1.083       .  S
C1064      C1511   1.406       .  A
C1064      H1068   1.082       .  S
C1069      C1526   1.408       .  A
C1069      C1074   1.398       .  A
C1069      H1079   1.082       .  S
C1070      C1075   1.490       .  S
C1070      C1525   1.408       .  A
C1070      C1071   1.408   1_565  A
C1071      C1072   1.397       .  A
C1071      H1076   1.082       .  S
C1072      C1073   1.403   1_545  A
C1072      H1077   1.083       .  S
C1073      C1530   1.402       .  A
C1074      C1529   1.402       .  A
C1074      H1078   1.083       .  S
C1075      C1080   1.407       .  A
C1075      C1540   1.407   1_565  A
C1080      C1081   1.397       .  A
C1080      H1085   1.082       .  S
C1081      C1082   1.405       .  A
C1081      H1086   1.083       .  S
C1082      C1539   1.405   1_565  A
C1083      C1538   1.405       .  A
C1083      C1084   1.398       .  A
C1083      H1087   1.083       .  S
C1084      C1531   1.407       .  A
C1084      H1088   1.082       .  S
C1089      C1090   1.404       .  A
C1089      C1094   1.398       .  A
C1089      H1099   1.083       .  S
C1090      C1095   1.479       .  S
C1090      C1091   1.404       .  A
C1091      C1092   1.397       .  A
C1091      H1096   1.083       .  S
C1092      C1093   1.406       .  A
C1092      H1097   1.083       .  S
C1093      C1094   1.406       .  A
C1094      H1098   1.083       .  S
C1095      C1100   1.405       .  A
C1095      C1104   1.404       .  A
C1100      C1101   1.397       .  A
C1100      H1105   1.083       .  S
C1101      C1102   1.404       .  A
C1101      H1106   1.083       .  S
C1102      C1103   1.404       .  A
C1103      C1104   1.396       .  A
C1103      H1107   1.083       .  S
C1104      H1108   1.083       .  S
C1109      C1110   1.405       .  A
C1109      C1114   1.397       .  A
C1109      H1119   1.083       .  S
C1110      C1115   1.480       .  S
C1110      C1111   1.405       .  A
C1111      C1112   1.396       .  A
C1111      H1116   1.083       .  S
C1112      C1113   1.403       .  A
C1112      H1117   1.083       .  S
C1113      C1114   1.403       .  A
C1114      H1118   1.083       .  S
C1115      C1120   1.404       .  A
C1115      C1124   1.404       .  A
C1120      C1121   1.398       .  A
C1120      H1125   1.083       .  S
C1121      C1122   1.406       .  A
C1121      H1126   1.083       .  S
C1122      C1123   1.405       .  A
C1123      C1124   1.397       .  A
C1123      H1127   1.083       .  S
C1124      H1128   1.083       .  S
C1129      C1130   1.404   1_545  A
C1129      C1134   1.396       .  A
C1129      H1139   1.083       .  S
C1130      C1135   1.477       .  S
C1130      C1587   1.404       .  A
C1131      C1586   1.404       .  A
C1131      C1132   1.396       .  A
C1131      H1136   1.083       .  S
C1132      C1589   1.403       .  A
C1132      H1137   1.083       .  S
C1133      C1588   1.403       .  A
C1133      C1134   1.403   1_565  A
C1134      H1138   1.083       .  S
C1135      C1140   1.403   1_565  A
C1135      C1600   1.404       .  A
C1140      C1141   1.396       .  A
C1140      H1145   1.083       .  S
C1141      C1142   1.405   1_545  A
C1141      H1146   1.083       .  S
C1142      C1599   1.406       .  A
C1143      C1598   1.406       .  A
C1143      C1144   1.398       .  A
C1143      H1147   1.083       .  S
C1144      C1591   1.404       .  A
C1144      H1148   1.083       .  S
C1149      C1606   1.403       .  A
C1149      C1154   1.396       .  A
C1149      H1159   1.083       .  S
C1150      C1155   1.476       .  S
C1150      C1605   1.403   1_545  A
C1150      C1151   1.403       .  A
C1151      C1152   1.396       .  A
C1151      H1156   1.083       .  S
C1152      C1153   1.406   1_545  A
C1152      H1157   1.083       .  S
C1153      C1610   1.405       .  A
C1154      C1609   1.405       .  A
C1154      H1158   1.083       .  S
C1155      C1160   1.404   1_545  A
C1155      C1620   1.404       .  A
C1160      C1161   1.396       .  A
C1160      H1165   1.083       .  S
C1161      C1162   1.403   1_565  A
C1161      H1166   1.083       .  S
C1162      C1619   1.403       .  A
C1163      C1618   1.403       .  A
C1163      C1164   1.396       .  A
C1163      H1167   1.083       .  S
C1164      C1611   1.404       .  A
C1164      H1168   1.083       .  S
C1169      C1170   1.404   1_554  A
C1169      C1174   1.398       .  A
C1169      H1179   1.083       .  S
C1170      C1175   1.480       .  S
C1170      C1171   1.404       .  A
C1171      C1172   1.399       .  A
C1171      H1176   1.083       .  S
C1172      C1173   1.405       .  A
C1172      H1177   1.083       .  S
C1173      C1174   1.405   1_556  A
C1174      H1178   1.083       .  S
C1175      C1180   1.404   1_556  A
C1175      C1184   1.405       .  A
C1180      C1181   1.397       .  A
C1180      H1185   1.083       .  S
C1181      C1182   1.402   1_554  A
C1181      H1186   1.083       .  S
C1182      C1183   1.403       .  A
C1183      C1184   1.400       .  A
C1183      H1187   1.083       .  S
C1184      H1188   1.083       .  S
C1189      C1190   1.405       .  A
C1189      C1194   1.397       .  A
C1189      H1199   1.083       .  S
C1190      C1195   1.481       .  S
C1190      C1191   1.405   1_554  A
C1191      C1192   1.397       .  A
C1191      H1196   1.083       .  S
C1192      C1193   1.403       .  A
C1192      H1197   1.083       .  S
C1193      C1194   1.403   1_556  A
C1194      H1198   1.083       .  S
C1195      C1200   1.404       .  A
C1195      C1204   1.404   1_554  A
C1200      C1201   1.398       .  A
C1200      H1205   1.083       .  S
C1201      C1202   1.406       .  A
C1201      H1206   1.083       .  S
C1202      C1203   1.406   1_554  A
C1203      C1204   1.398       .  A
C1203      H1207   1.083       .  S
C1204      H1208   1.083       .  S
C1209      C1666   1.404   1_545  A
C1209      C1214   1.397       .  A
C1209      H1219   1.083       .  S
C1210      C1215   1.477       .  S
C1210      C1665   1.404       .  A
C1210      C1211   1.403   1_554  A
C1211      C1212   1.398       .  A
C1211      H1216   1.083       .  S
C1212      C1669   1.406   1_556  A
C1212      H1217   1.083       .  S
C1213      C1422   1.477       .  S
C1213      C1668   1.406   1_554  A
C1213      C1214   1.405   1_565  A
C1214      H1218   1.083       .  S
C1215      C1676   1.404       .  A
C1215      C1224   1.405   1_554  A
C1220      C1671   1.404   1_545  A
C1220      C1221   1.395       .  A
C1220      H1225   1.083       .  S
C1221      C1222   1.402   1_544  A
C1221      H1226   1.082       .  S
C1222      C1679   1.402       .  A
C1223      C1678   1.402       .  A
C1223      C1224   1.398       .  A
C1223      H1227   1.083       .  S
C1224      H1228   1.083       .  S
C1229      C1686   1.403       .  A
C1229      C1234   1.398       .  A
C1229      H1239   1.083       .  S
C1230      C1235   1.477       .  S
C1230      C1685   1.403   1_545  A
C1230      C1231   1.403   1_554  A
C1231      C1232   1.398       .  A
C1231      H1236   1.083       .  S
C1232      C1689   1.405   1_556  A
C1232      H1237   1.083       .  S
C1233      C1688   1.405   1_554  A
C1233      C1234   1.406       .  A
C1234      H1238   1.083       .  S
C1235      C1240   1.404   1_545  A
C1235      C1700   1.404   1_554  A
C1240      C1241   1.398       .  A
C1240      H1245   1.083       .  S
C1241      C1242   1.403   1_564  A
C1241      H1246   1.083       .  S
C1242      C1699   1.402       .  A
C1243      C1698   1.402       .  A
C1243      C1244   1.396       .  A
C1243      H1247   1.082       .  S
C1244      C1691   1.404   1_556  A
C1244      H1248   1.083       .  S
C1249      C1250   1.405       .  A
C1249      C1254   1.397       .  A
C1249      H1259   1.083       .  S
C1250      C1255   1.480       .  S
C1251      C1252   1.396       .  A
C1251      H1256   1.083       .  S
C1252      H1257   1.083       .  S
C1253      C1254   1.403       .  A
C1254      H1258   1.083       .  S
C1255      C1260   1.405       .  A
C1260      C1261   1.398       .  A
C1260      H1265   1.083       .  S
C1261      C1262   1.405       .  A
C1261      H1266   1.083       .  S
C1263      C1264   1.396       .  A
C1263      H1267   1.083       .  S
C1264      H1268   1.083       .  S
C1269      C1274   1.398       .  A
C1269      H1279   1.083       .  S
C1270      C1275   1.479       .  S
C1270      C1271   1.404       .  A
C1271      C1272   1.397       .  A
C1271      H1276   1.083       .  S
C1272      C1273   1.405       .  A
C1272      H1277   1.083       .  S
C1274      H1278   1.083       .  S
C1275      C1284   1.404       .  A
C1280      C1281   1.397       .  A
C1280      H1285   1.083       .  S
C1281      H1286   1.083       .  S
C1282      C1283   1.403       .  A
C1283      C1284   1.396       .  A
C1283      H1287   1.083       .  S
C1284      H1288   1.083       .  S
C1289      C1294   1.396       .  A
C1289      H1299   1.082       .  S
C1290      C1295   1.489       .  S
C1290      C1291   1.408       .  A
C1291      C1292   1.399       .  A
C1291      H1296   1.082       .  S
C1292      C1293   1.405       .  A
C1292      H1297   1.083       .  S
C1294      H1298   1.083       .  S
C1295      C1304   1.407       .  A
C1300      C1301   1.397       .  A
C1300      H1305   1.082       .  S
C1301      H1306   1.083       .  S
C1302      C1303   1.404       .  A
C1303      C1304   1.398       .  A
C1303      H1307   1.083       .  S
C1304      H1308   1.082       .  S
C1309      C1310   1.407       .  A
C1309      C1314   1.396       .  A
C1309      H1319   1.082       .  S
C1310      C1315   1.488       .  S
C1311      C1312   1.398       .  A
C1311      H1316   1.082       .  S
C1312      H1317   1.083       .  S
C1313      C1314   1.404       .  A
C1314      H1318   1.083       .  S
C1315      C1320   1.407       .  A
C1320      C1321   1.396       .  A
C1320      H1325   1.082       .  S
C1321      C1322   1.404       .  A
C1321      H1326   1.083       .  S
C1323      C1324   1.399       .  A
C1323      H1327   1.083       .  S
C1324      H1328   1.082       .  S
C1329      C1334   1.398       .  A
C1329      H1339   1.083       .  S
C1330      C1335   1.477       .  S
C1330      C1331   1.403   1_556  A
C1331      C1332   1.399       .  A
C1331      H1336   1.083       .  S
C1332      H1337   1.083       .  S
C1333      C1334   1.405   1_455  A
C1334      H1338   1.083       .  S
C1335      C1344   1.404   1_556  A
C1340      C1341   1.397       .  A
C1340      H1345   1.083       .  S
C1341      H1346   1.082       .  S
C1342      C1343   1.402   1_556  A
C1343      C1344   1.398       .  A
C1343      H1347   1.083       .  S
C1344      H1348   1.083       .  S
C1349      C1354   1.397       .  A
C1349      H1359   1.083       .  S
C1350      C1355   1.482       .  S
C1350      C1351   1.405   1_554  A
C1351      C1352   1.398       .  A
C1351      H1356   1.083       .  S
C1352      H1357   1.083       .  S
C1353      C1354   1.403       .  A
C1354      H1358   1.083       .  S
C1355      C1364   1.405   1_554  A
C1360      C1361   1.397       .  A
C1360      H1365   1.083       .  S
C1361      H1366   1.083       .  S
C1362      C1363   1.406   1_554  A
C1363      C1364   1.399       .  A
C1363      H1367   1.083       .  S
C1364      H1368   1.083       .  S
O1369     Ni1377   1.917   1_554  S
O1370     Ni1377   1.912       .  S
O1371     Ni1377   1.918       .  S
O1371      C1381   1.282   1_655  A
O1372     Ni1377   1.919   1_554  S
O1372      C1382   1.282       .  A
O1373     Ni1378   1.916       .  S
O1374     Ni1378   1.918       .  S
O1375     Ni1378   1.920   1_556  S
O1375      C1380   1.282       .  A
O1376     Ni1378   1.915       .  S
O1376      C1379   1.281       .  A
C1379      C1769   1.477       .  S
C1380      C1749   1.480       .  S
C1381      C1789   1.479       .  S
C1382      C1818   1.479       .  S
O1383     Ni1391   1.917       .  S
O1383      C1393   1.282       .  A
O1384     Ni1391   1.917       .  S
O1384      C1394   1.282       .  A
O1385     Ni1391   1.915       .  S
O1385      C1395   1.281       .  A
O1386     Ni1391   1.914       .  S
O1386      C1396   1.281       .  A
O1387     Ni1392   1.918       .  S
O1388     Ni1392   1.918       .  S
O1389     Ni1392   1.916       .  S
O1390     Ni1392   1.914       .  S
C1393      C1718   1.477       .  S
C1394      C1729   1.479       .  S
C1395      C1758   1.476       .  S
C1396      C1778   1.479       .  S
C1397      C1649   1.488       .  S
C1398      C1809   1.488   1_556  S
C1399      C1678   1.482       .  S
C1399      C1400   1.414       .  A
C1400      C1638   1.485       .  S
C1400      C1401   1.412       .  A
C1401      C1798   1.483       .  S
C1402      C1698   1.484       .  S
C1403      C1569   1.488       .  S
C1404      C1738   1.487       .  S
C1405      C1589   1.486       .  S
C1405      C1406   1.416       .  A
C1406      C1558   1.489       .  S
C1406      C1407   1.415       .  A
C1407      C1709   1.486       .  S
C1408      C1618   1.486       .  S
O1409     Ni1417   1.916       .  S
O1410     Ni1417   1.916   1_556  S
O1411     Ni1417   1.916       .  S
O1411      C1421   1.281   1_565  A
O1412     Ni1417   1.915       .  S
O1412      C1422   1.281       .  A
O1413     Ni1418   1.918       .  S
O1414     Ni1418   1.917       .  S
O1415     Ni1418   1.917   1_556  S
O1415      C1420   1.282       .  A
O1416     Ni1418   1.917       .  S
O1416      C1419   1.282       .  A
C1419      C1538   1.481       .  S
C1420      C1518   1.480       .  S
C1421      C1689   1.478       .  S
O1423     Ni1431   1.917       .  S
O1424     Ni1431   1.917       .  S
O1425     Ni1431   1.916       .  S
O1426     Ni1431   1.915       .  S
O1427     Ni1432   1.914       .  S
O1427      C1436   1.281       .  A
O1428     Ni1432   1.913       .  S
O1428      C1435   1.281       .  A
O1429     Ni1432   1.915       .  S
O1429      C1434   1.281       .  A
O1430     Ni1432   1.915       .  S
O1430      C1433   1.281       .  A
C1433      C1509   1.476       .  S
C1434      C1529   1.473       .  S
C1435      C1609   1.477       .  S
C1436      C1598   1.477       .  S
O1437     Ni1445   1.914       .  S
O1437      C1447   1.281       .  A
O1438     Ni1445   1.919   1_556  S
O1438      C1448   1.282       .  A
O1439     Ni1445   1.920       .  S
O1439      C1449   1.282       .  A
O1440     Ni1445   1.915   1_556  S
O1440      C1450   1.281       .  A
O1441     Ni1446   1.921       .  S
O1441      C1450   1.282       .  A
O1442     Ni1446   1.916   1_554  S
O1442      C1449   1.281       .  A
O1443     Ni1446   1.914       .  S
O1443      C1448   1.281       .  A
O1444     Ni1446   1.920   1_554  S
O1444      C1447   1.282       .  A
Ni1445    Ni1446   2.388   1_554  S
C1447      C1489   1.480       .  S
C1448      C1469   1.473       .  S
C1449      C1658   1.480       .  S
C1450      C1629   1.477       .  S
O1451     Ni1459   1.918       .  S
O1451      C1461   1.282       .  A
O1452     Ni1459   1.915       .  S
O1452      C1462   1.281       .  A
O1453     Ni1459   1.918       .  S
O1453      C1463   1.282       .  A
O1454     Ni1459   1.918       .  S
O1454      C1464   1.282       .  A
O1455     Ni1460   1.915       .  S
O1455      C1464   1.281       .  A
O1456     Ni1460   1.916       .  S
O1456      C1463   1.282       .  A
O1457     Ni1460   1.917       .  S
O1457      C1462   1.282       .  A
O1458     Ni1460   1.915       .  S
O1458      C1461   1.281       .  A
Ni1459    Ni1460   2.387       .  S
C1461      C1549   1.480       .  S
C1462      C1578   1.479       .  S
C1463      C1478   1.482       .  S
C1464      C1498   1.477       .  S
C1465      C1466   1.408       .  A
C1465      C1470   1.397       .  A
C1465      H1475   1.082       .  S
C1466      C1471   1.490       .  S
C1466      C1467   1.409       .  A
C1467      C1468   1.398       .  A
C1467      H1472   1.082       .  S
C1468      C1469   1.402       .  A
C1468      H1473   1.083       .  S
C1469      C1470   1.402       .  A
C1470      H1474   1.083       .  S
C1471      C1476   1.407       .  A
C1471      C1480   1.407       .  A
C1476      C1477   1.398       .  A
C1476      H1481   1.082       .  S
C1477      C1478   1.405       .  A
C1477      H1482   1.083       .  S
C1478      C1479   1.405       .  A
C1479      C1480   1.398       .  A
C1479      H1483   1.083       .  S
C1480      H1484   1.082       .  S
C1485      C1486   1.407       .  A
C1485      C1490   1.399       .  A
C1485      H1495   1.082       .  S
C1486      C1491   1.488       .  S
C1486      C1487   1.406       .  A
C1487      C1488   1.396       .  A
C1487      H1492   1.083       .  S
C1488      C1489   1.405       .  A
C1488      H1493   1.083       .  S
C1489      C1490   1.405       .  A
C1490      H1494   1.083       .  S
C1491      C1496   1.407       .  A
C1491      C1500   1.407       .  A
C1496      C1497   1.397       .  A
C1496      H1501   1.082       .  S
C1497      C1498   1.403       .  A
C1497      H1502   1.083       .  S
C1498      C1499   1.405       .  A
C1499      C1500   1.398       .  A
C1499      H1503   1.083       .  S
C1500      H1504   1.083       .  S
C1505      C1506   1.407       .  A
C1505      C1510   1.398       .  A
C1505      H1515   1.083       .  S
C1506      C1511   1.488       .  S
C1507      C1508   1.397       .  A
C1507      H1512   1.082       .  S
C1508      H1513   1.083       .  S
C1509      C1510   1.404       .  A
C1510      H1514   1.083       .  S
C1511      C1516   1.407       .  A
C1516      C1517   1.398       .  A
C1516      H1521   1.082       .  S
C1517      C1518   1.405       .  A
C1517      H1522   1.083       .  S
C1519      C1520   1.397       .  A
C1519      H1523   1.083       .  S
C1520      H1524   1.082       .  S
C1525      C1530   1.398       .  A
C1525      H1535   1.082       .  S
C1526      C1531   1.490       .  S
C1526      C1527   1.408       .  A
C1527      C1528   1.397       .  A
C1527      H1532   1.082       .  S
C1528      C1529   1.403       .  A
C1528      H1533   1.083       .  S
C1530      H1534   1.083       .  S
C1531      C1536   1.407       .  A
C1536      C1537   1.397       .  A
C1536      H1541   1.082       .  S
C1537      C1538   1.405       .  A
C1537      H1542   1.083       .  S
C1539      C1540   1.398       .  A
C1539      H1543   1.083       .  S
C1540      H1544   1.082       .  S
C1545      C1546   1.404       .  A
C1545      C1550   1.398       .  A
C1545      H1555   1.083       .  S
C1546      C1551   1.479       .  S
C1546      C1547   1.404       .  A
C1547      C1548   1.397       .  A
C1547      H1552   1.083       .  S
C1548      C1549   1.406       .  A
C1548      H1553   1.083       .  S
C1549      C1550   1.406       .  A
C1550      H1554   1.083       .  S
C1551      C1556   1.405       .  A
C1551      C1560   1.404       .  A
C1556      C1557   1.397       .  A
C1556      H1561   1.083       .  S
C1557      C1558   1.404       .  A
C1557      H1562   1.083       .  S
C1558      C1559   1.404       .  A
C1559      C1560   1.396       .  A
C1559      H1563   1.083       .  S
C1560      H1564   1.083       .  S
C1565      C1566   1.405       .  A
C1565      C1570   1.397       .  A
C1565      H1575   1.083       .  S
C1566      C1571   1.480       .  S
C1566      C1567   1.405       .  A
C1567      C1568   1.396       .  A
C1567      H1572   1.083       .  S
C1568      C1569   1.403       .  A
C1568      H1573   1.083       .  S
C1569      C1570   1.403       .  A
C1570      H1574   1.083       .  S
C1571      C1576   1.404       .  A
C1571      C1580   1.404       .  A
C1576      C1577   1.398       .  A
C1576      H1581   1.083       .  S
C1577      C1578   1.406       .  A
C1577      H1582   1.083       .  S
C1578      C1579   1.405       .  A
C1579      C1580   1.397       .  A
C1579      H1583   1.083       .  S
C1580      H1584   1.083       .  S
C1585      C1586   1.404       .  A
C1585      C1590   1.396       .  A
C1585      H1595   1.083       .  S
C1586      C1591   1.477       .  S
C1587      C1588   1.396       .  A
C1587      H1592   1.083       .  S
C1588      H1593   1.083       .  S
C1589      C1590   1.403       .  A
C1590      H1594   1.083       .  S
C1591      C1596   1.403       .  A
C1596      C1597   1.396       .  A
C1596      H1601   1.083       .  S
C1597      C1598   1.405       .  A
C1597      H1602   1.083       .  S
C1599      C1600   1.398       .  A
C1599      H1603   1.083       .  S
C1600      H1604   1.083       .  S
C1605      C1610   1.396       .  A
C1605      H1615   1.083       .  S
C1606      C1611   1.476       .  S
C1606      C1607   1.403       .  A
C1607      C1608   1.396       .  A
C1607      H1612   1.083       .  S
C1608      C1609   1.406       .  A
C1608      H1613   1.083       .  S
C1610      H1614   1.083       .  S
C1611      C1616   1.404       .  A
C1616      C1617   1.396       .  A
C1616      H1621   1.083       .  S
C1617      C1618   1.403       .  A
C1617      H1622   1.083       .  S
C1619      C1620   1.396       .  A
C1619      H1623   1.083       .  S
C1620      H1624   1.083       .  S
C1625      C1626   1.404   1_554  A
C1625      C1630   1.398       .  A
C1625      H1635   1.083       .  S
C1626      C1631   1.480       .  S
C1626      C1627   1.404       .  A
C1627      C1628   1.399       .  A
C1627      H1632   1.083       .  S
C1628      C1629   1.405       .  A
C1628      H1633   1.083       .  S
C1629      C1630   1.405   1_556  A
C1630      H1634   1.083       .  S
C1631      C1636   1.404   1_556  A
C1631      C1640   1.405       .  A
C1636      C1637   1.397       .  A
C1636      H1641   1.083       .  S
C1637      C1638   1.402   1_554  A
C1637      H1642   1.083       .  S
C1638      C1639   1.403       .  A
C1639      C1640   1.400       .  A
C1639      H1643   1.083       .  S
C1640      H1644   1.083       .  S
C1645      C1646   1.405       .  A
C1645      C1650   1.397       .  A
C1645      H1655   1.083       .  S
C1646      C1651   1.481       .  S
C1646      C1647   1.405   1_554  A
C1647      C1648   1.397       .  A
C1647      H1652   1.083       .  S
C1648      C1649   1.403       .  A
C1648      H1653   1.083       .  S
C1649      C1650   1.403   1_556  A
C1650      H1654   1.083       .  S
C1651      C1656   1.404       .  A
C1651      C1660   1.404   1_554  A
C1656      C1657   1.398       .  A
C1656      H1661   1.083       .  S
C1657      C1658   1.406       .  A
C1657      H1662   1.083       .  S
C1658      C1659   1.406   1_554  A
C1659      C1660   1.398       .  A
C1659      H1663   1.083       .  S
C1660      H1664   1.083       .  S
C1665      C1670   1.397       .  A
C1665      H1675   1.083       .  S
C1666      C1671   1.477       .  S
C1666      C1667   1.403   1_554  A
C1667      C1668   1.398       .  A
C1667      H1672   1.083       .  S
C1668      H1673   1.083       .  S
C1669      C1670   1.405       .  A
C1670      H1674   1.083       .  S
C1671      C1680   1.405   1_554  A
C1676      C1677   1.395       .  A
C1676      H1681   1.083       .  S
C1677      C1678   1.402   1_554  A
C1677      H1682   1.082       .  S
C1679      C1680   1.398       .  A
C1679      H1683   1.083       .  S
C1680      H1684   1.083       .  S
C1685      C1690   1.398       .  A
C1685      H1695   1.083       .  S
C1686      C1691   1.477       .  S
C1686      C1687   1.403   1_554  A
C1687      C1688   1.398       .  A
C1687      H1692   1.083       .  S
C1688      H1693   1.083       .  S
C1689      C1690   1.406   1_545  A
C1690      H1694   1.083       .  S
C1691      C1696   1.404       .  A
C1696      C1697   1.398       .  A
C1696      H1701   1.083       .  S
C1697      C1698   1.403   1_554  A
C1697      H1702   1.083       .  S
C1699      C1700   1.396       .  A
C1699      H1703   1.082       .  S
C1700      H1704   1.083       .  S
C1705      C1706   1.405       .  A
C1705      C1710   1.397       .  A
C1705      H1715   1.083       .  S
C1706      C1711   1.480       .  S
C1707      C1708   1.396       .  A
C1707      H1712   1.083       .  S
C1708      H1713   1.083       .  S
C1709      C1710   1.403       .  A
C1710      H1714   1.083       .  S
C1711      C1716   1.405       .  A
C1716      C1717   1.398       .  A
C1716      H1721   1.083       .  S
C1717      C1718   1.405       .  A
C1717      H1722   1.083       .  S
C1719      C1720   1.396       .  A
C1719      H1723   1.083       .  S
C1720      H1724   1.083       .  S
C1725      C1730   1.398       .  A
C1725      H1735   1.083       .  S
C1726      C1731   1.479       .  S
C1726      C1727   1.404       .  A
C1727      C1728   1.397       .  A
C1727      H1732   1.083       .  S
C1728      C1729   1.405       .  A
C1728      H1733   1.083       .  S
C1730      H1734   1.083       .  S
C1731      C1740   1.404       .  A
C1736      C1737   1.397       .  A
C1736      H1741   1.083       .  S
C1737      H1742   1.083       .  S
C1738      C1739   1.403       .  A
C1739      C1740   1.396       .  A
C1739      H1743   1.083       .  S
C1740      H1744   1.083       .  S
C1745      C1750   1.396       .  A
C1745      H1755   1.082       .  S
C1746      C1751   1.489       .  S
C1746      C1747   1.408       .  A
C1747      C1748   1.399       .  A
C1747      H1752   1.082       .  S
C1748      C1749   1.405       .  A
C1748      H1753   1.083       .  S
C1750      H1754   1.083       .  S
C1751      C1760   1.407       .  A
C1756      C1757   1.397       .  A
C1756      H1761   1.082       .  S
C1757      H1762   1.083       .  S
C1758      C1759   1.404       .  A
C1759      C1760   1.398       .  A
C1759      H1763   1.083       .  S
C1760      H1764   1.082       .  S
C1765      C1766   1.407       .  A
C1765      C1770   1.396       .  A
C1765      H1775   1.082       .  S
C1766      C1771   1.488       .  S
C1767      C1768   1.398       .  A
C1767      H1772   1.082       .  S
C1768      H1773   1.083       .  S
C1769      C1770   1.404       .  A
C1770      H1774   1.083       .  S
C1771      C1776   1.407       .  A
C1776      C1777   1.396       .  A
C1776      H1781   1.082       .  S
C1777      C1778   1.404       .  A
C1777      H1782   1.083       .  S
C1779      C1780   1.399       .  A
C1779      H1783   1.083       .  S
C1780      H1784   1.082       .  S
C1785      C1790   1.398       .  A
C1785      H1795   1.083       .  S
C1786      C1791   1.477       .  S
C1786      C1787   1.403   1_556  A
C1787      C1788   1.399       .  A
C1787      H1792   1.083       .  S
C1788      H1793   1.083       .  S
C1789      C1790   1.405   1_455  A
C1790      H1794   1.083       .  S
C1791      C1800   1.404   1_556  A
C1796      C1797   1.397       .  A
C1796      H1801   1.083       .  S
C1797      H1802   1.082       .  S
C1798      C1799   1.402   1_556  A
C1799      C1800   1.398       .  A
C1799      H1803   1.083       .  S
C1800      H1804   1.083       .  S
C1805      C1810   1.397       .  A
C1805      H1815   1.083       .  S
C1806      C1811   1.482       .  S
C1806      C1807   1.405   1_554  A
C1807      C1808   1.398       .  A
C1807      H1812   1.083       .  S
C1808      H1813   1.083       .  S
C1809      C1810   1.403       .  A
C1810      H1814   1.083       .  S
C1811      C1820   1.405   1_554  A
C1816      C1817   1.397       .  A
C1816      H1821   1.083       .  S
C1817      H1822   1.083       .  S
C1818      C1819   1.406   1_554  A
C1819      C1820   1.399       .  A
C1819      H1823   1.083       .  S
C1820      H1824   1.083       .  S
