geometry optimzed in LAMMPS
_audit_creation_date              2020-11-30 
_audit_creation_method            'lammps2cif' 
_symmetry_space_group_name_H-M    'P1' 
_symmetry_Int_Tables_number       1 
_symmetry_cell_setting            triclinic 
loop_ 
_symmetry_equiv_pos_as_xyz 
  x,y,z 
_cell_length_a                    27.980855131814685 
_cell_length_b                    27.95917216159056 
_cell_length_c                    47.96100797343853 
_cell_angle_alpha                 86.31988961096987 
_cell_angle_beta                  94.4169409710049 
_cell_angle_gamma                 120.1397199704803 
loop_ 
_atom_site_label 
_atom_site_type_symbol 
_atom_site_fract_x 
_atom_site_fract_y 
_atom_site_fract_z 
_atom_site_charge 
C1          C  0.02249624  0.94223411  0.74867483     0.03010
C2          C  0.96915856  0.90275120  0.75619048    -0.13140
C3          C  0.93210898  0.91960506  0.76255341     0.00510
C4          C  0.94866613  0.97617466  0.76148323    -0.11670
C5          C  0.00233318  0.01545041  0.75443247     0.03000
C6          C  0.03863818  0.99811219  0.74758836    -0.11090
H7          H  0.95682998  0.85923656  0.75748740     0.08590
H8          H  0.91945446  0.98928754  0.76547361     0.06120
H9          H  0.08008670  0.02843690  0.74167038     0.05970
O10         O  0.13095526  0.79942236  0.74507483    -0.71900
O11         O  0.19895754  0.71718674  0.77228519    -0.72120
O12         O  0.15978826  0.77265749  0.79562812    -0.71980
O13         O  0.16975043  0.74457026  0.72060353    -0.71990
O14         O  0.25003074  0.81948208  0.71911219    -0.71950
O15         O  0.24111447  0.84645722  0.79431578    -0.71970
O16         O  0.27928985  0.79190107  0.77031197    -0.71910
O17         O  0.21144719  0.87454527  0.74442456    -0.72100
V18         V  0.16644806  0.75978165  0.75822791     1.35240
V19         V  0.24392759  0.83155293  0.75685060     1.35170
C20         C  0.15950898  0.85103933  0.74105684     0.77340
C21         C  0.25056084  0.74166248  0.77775882     0.77390
C22         C  0.19993282  0.81292691  0.80801836     0.77260
C23         C  0.21027070  0.77895712  0.70663937     0.77220
C24         C  0.36211846  0.69422490  0.75212925     0.03010
C25         C  0.34717826  0.65423943  0.73237369    -0.13140
C26         C  0.33573261  0.66386862  0.70423348     0.00510
C27         C  0.34490339  0.71596168  0.69490747    -0.11670
C28         C  0.36893408  0.75993294  0.71343977     0.03000
C29         C  0.37583256  0.74795089  0.74210930    -0.11090
H30         H  0.33755165  0.61297819  0.73937035     0.08590
H31         H  0.33559341  0.72263163  0.67314521     0.06120
H32         H  0.39187447  0.78070197  0.75682386     0.05970
O33         O  0.16501350  0.27679766  0.75164476    -0.71900
O34         O  0.24084706  0.42906314  0.73118355    -0.72120
O35         O  0.20744536  0.37024999  0.77999662    -0.71980
O36         O  0.20046007  0.33695105  0.70442379    -0.71990
O37         O  0.12202267  0.33524801  0.69703224    -0.71950
O38         O  0.12967506  0.37019116  0.77378305    -0.71970
O39         O  0.16222628  0.42699304  0.72464454    -0.71910
O40         O  0.08671847  0.27601569  0.74536997    -0.72100
V41         V  0.20179553  0.35315888  0.74197467     1.35240
V42         V  0.12646178  0.35187579  0.73560164     1.35170
C43         C  0.11279642  0.25043009  0.75075618     0.77340
C44         C  0.21365049  0.45223657  0.72194599     0.77390
C45         C  0.17016646  0.37586911  0.78994123     0.77260
C46         C  0.16284839  0.33490908  0.68744760     0.77220
O47         O  0.71756601  0.87805809  0.76113199    -0.71900
O48         O  0.59649443  0.89772079  0.73982908    -0.72120
O49         O  0.64832162  0.89273500  0.78946153    -0.71980
O50         O  0.66495745  0.88008926  0.71200327    -0.71990
O51         O  0.61462707  0.79098410  0.71713811    -0.71950
O52         O  0.58997959  0.80430128  0.79168580    -0.71970
O53         O  0.54251804  0.80832561  0.74077535    -0.71910
O54         O  0.66374142  0.78916872  0.76690603    -0.72100
V55         V  0.65582652  0.88551997  0.75078986     1.35240
V56         V  0.60356645  0.79997551  0.75418879     1.35170
C57         C  0.71164349  0.83120373  0.76785682     0.77340
C58         C  0.54990535  0.85622844  0.73455420     0.77390
C59         C  0.61704772  0.84980015  0.80377370     0.77260
C60         C  0.64157448  0.83260627  0.70135066     0.77220
C61         C  0.60809795  0.79986158  0.58197973     0.03010
C62         C  0.61070537  0.75891591  0.56792749    -0.13140
C63         C  0.58427994  0.74135206  0.54109481     0.00510
C64         C  0.56724309  0.77723817  0.52653186    -0.11670
C65         C  0.57211924  0.82412649  0.53926211     0.03000
C66         C  0.58845921  0.83172525  0.56766595    -0.11090
H67         H  0.63269809  0.74147222  0.57930032     0.08590
H68         H  0.55010772  0.76996393  0.50538182     0.06120
H69         H  0.58555104  0.86247591  0.57894036     0.05970
C70         C  0.21774494  0.78248724  0.58613492     0.03010
C71         C  0.26061600  0.82534662  0.57140063    -0.13140
C72         C  0.26961650  0.81888792  0.54369220     0.00510
C73         C  0.23061956  0.76957403  0.52998855    -0.11670
C74         C  0.18292809  0.72878025  0.54355154     0.03000
C75         C  0.17732891  0.73656313  0.57158010    -0.11090
H76         H  0.28862228  0.86312721  0.58212159     0.08590
H77         H  0.23914904  0.76157895  0.50974650     0.06120
H78         H  0.14265921  0.70478085  0.58280658     0.05970
C79         C  0.20450072  0.79416034  0.92755715     0.03010
C80         C  0.16249225  0.74564342  0.93915929    -0.13140
C81         C  0.15541042  0.73860119  0.96819035     0.00510
C82         C  0.19636126  0.78028059  0.98579760    -0.11670
C83         C  0.24354731  0.82593279  0.97424485     0.03000
C84         C  0.24513894  0.83345757  0.94507395    -0.11090
H85         H  0.13623569  0.71293829  0.92498019     0.08590
H86         H  0.19301990  0.77663649  0.00823430     0.06120
H87         H  0.27913343  0.86980856  0.93577510     0.05970
C88         C  0.59293944  0.82033628  0.92307597     0.03010
C89         C  0.58324048  0.76897695  0.93448609    -0.13140
C90         C  0.55694159  0.74792012  0.95994442     0.00510
C91         C  0.54359971  0.78152826  0.97492128    -0.11670
C92         C  0.55605199  0.83486631  0.96430236     0.03000
C93         C  0.58162101  0.85369157  0.93866734    -0.11090
H94         H  0.59225394  0.74332198  0.92236438     0.08590
H95         H  0.52091301  0.76514074  0.99376577     0.06120
H96         H  0.58903965  0.89329447  0.92968486     0.05970
C97         C  0.20888252  0.39337064  0.57111611     0.03010
C98         C  0.17274548  0.40770493  0.55648618    -0.13140
C99         C  0.18090710  0.42882456  0.52878536     0.00510
C100        C  0.23007633  0.43972306  0.51639952    -0.11670
C101        C  0.26973546  0.42990271  0.53180945     0.03000
C102        C  0.25654113  0.40308009  0.55835660    -0.11090
H103        H  0.13873132  0.40420639  0.56751860     0.08590
H104        H  0.23872760  0.45749886  0.49544893     0.06120
H105        H  0.28532022  0.39293305  0.56984072     0.05970
C106        C  0.20077491  0.43340041  0.90662001     0.03010
C107        C  0.16104659  0.43811567  0.92049781    -0.13140
C108        C  0.16736630  0.44749039  0.94940852     0.00510
C109        C  0.21379259  0.44912230  0.96454276    -0.11670
C110        C  0.25650982  0.44863890  0.95069752     0.03000
C111        C  0.24888470  0.44060584  0.92165174    -0.11090
H112        H  0.12524174  0.43484140  0.90850872     0.08590
H113        H  0.21694921  0.45140399  0.98707106     0.06120
H114        H  0.28097794  0.44086965  0.91028185     0.05970
C115        C  0.48191045  0.51707741  0.99306189     0.00440
C116        C  0.50816156  0.48849261  0.00338000     0.00440
C117        C  0.01508877  0.50897876  0.99296452     0.00440
C118        C  0.96212495  0.47612462  0.00179054     0.00440
C119        C  0.49758914  0.51677239  0.49988386     0.00440
C120        C  0.52480331  0.48967048  0.49314790     0.00440
C121        C  0.02779025  0.50881839  0.50210694     0.00440
C122        C  0.97400943  0.48515401  0.49126395     0.00440
C123        C  0.47104591  0.97315077  0.00033685     0.00440
C124        C  0.50253458  0.02804442  0.00752792     0.00440
C125        C  0.51096375  0.02170353  0.49022470     0.00440
C126        C  0.48580314  0.96747998  0.49969910     0.00440
O127        O  0.81094939  0.12963570  0.25717503    -0.71900
O128        O  0.74066228  0.20507505  0.22252790    -0.72120
O129        O  0.78986712  0.15412035  0.20412642    -0.71980
O130        O  0.76122983  0.18028626  0.27609087    -0.71990
O131        O  0.84175027  0.25508784  0.27820633    -0.71950
O132        O  0.86631590  0.23336034  0.20474487    -0.71970
O133        O  0.81852770  0.28251703  0.22579986    -0.71910
O134        O  0.89000775  0.20619724  0.25650682    -0.72100
V135        V  0.77712914  0.16871451  0.24008142     1.35240
V136        V  0.85260238  0.24281440  0.24137020     1.35170
C137        C  0.86271494  0.15503768  0.26212141     0.77340
C138        C  0.76811805  0.25666143  0.21763667     0.77390
C139        C  0.83123425  0.19104626  0.19159361     0.77260
C140        C  0.79809825  0.22046357  0.29001716     0.77220
C141        C  0.70704525  0.36789056  0.24935863     0.03010
C142        C  0.66205747  0.36207524  0.26257103    -0.13140
C143        C  0.66071890  0.35694418  0.29176955     0.00510
C144        C  0.70732750  0.36408996  0.30815870    -0.11670
C145        C  0.75649436  0.37775632  0.29533840     0.03000
C146        C  0.75394516  0.37542693  0.26589717    -0.11090
H147        H  0.62528668  0.35501764  0.25002882     0.08590
H148        H  0.70555169  0.36065489  0.33071186     0.06120
H149        H  0.78884437  0.37998177  0.25553835     0.05970
O150        O  0.27280092  0.08610019  0.24942007    -0.71900
O151        O  0.42308081  0.18487431  0.26846488    -0.72120
O152        O  0.33371168  0.12787328  0.29686211    -0.71980
O153        O  0.36470885  0.14472115  0.22008547    -0.71990
O154        O  0.35010057  0.21422983  0.21582760    -0.71950
O155        O  0.31659152  0.19582640  0.29254064    -0.71970
O156        O  0.40761935  0.25373589  0.26501271    -0.71910
O157        O  0.25813646  0.15554175  0.24431258    -0.72100
V158        V  0.34803555  0.13706840  0.25837362     1.35240
V159        V  0.33323987  0.20338932  0.25424932     1.35170
C160        C  0.23948854  0.10400025  0.24467668     0.77340
C161        C  0.43985039  0.23531532  0.27210817     0.77390
C162        C  0.32338103  0.16119525  0.30802183     0.77260
C163        C  0.36367662  0.18297730  0.20495978     0.77220
O164        O  0.86701439  0.71579698  0.24073361    -0.71900
O165        O  0.89018912  0.59977018  0.26925277    -0.72120
O166        O  0.87798093  0.63905757  0.21698503    -0.71980
O167        O  0.87761853  0.67688258  0.29221774    -0.71990
O168        O  0.78868073  0.62256948  0.29107314    -0.71950
O169        O  0.78920335  0.58397309  0.21721861    -0.71970
O170        O  0.80098319  0.54537464  0.26921018    -0.71910
O171        O  0.77770133  0.66162282  0.24037561    -0.72100
V172        V  0.87656954  0.65671043  0.25464006     1.35240
V173        V  0.79098385  0.60414223  0.25431410     1.35170
C174        C  0.81897233  0.70897191  0.23642041     0.77340
C175        C  0.84920720  0.55418700  0.27614924     0.77390
C176        C  0.83277833  0.60748267  0.20377818     0.77260
C177        C  0.83254018  0.65550350  0.30454303     0.77220
C178        C  0.81097584  0.18876472  0.07166977     0.03010
C179        C  0.84593293  0.23365891  0.05479614    -0.13140
C180        C  0.82893812  0.24236426  0.02748984     0.00510
C181        C  0.77584102  0.20234119  0.01679214    -0.11670
C182        C  0.74033398  0.15673779  0.03377241     0.03000
C183        C  0.75996781  0.14848190  0.06036565    -0.11090
H184        H  0.88471847  0.26479504  0.06434667     0.08590
H185        H  0.76069142  0.20784157  0.99610411     0.06120
H186        H  0.73285212  0.11350609  0.07343149     0.05970
C187        C  0.80153211  0.58616533  0.08327358     0.03010
C188        C  0.75347561  0.58137111  0.06946031    -0.13140
C189        C  0.73689309  0.56085310  0.04223823     0.00510
C190        C  0.77100508  0.54638566  0.02867301    -0.11670
C191        C  0.82223925  0.55554476  0.04161022     0.03000
C192        C  0.83713708  0.57678343  0.06868299    -0.11090
H193        H  0.72688177  0.59021085  0.08080536     0.08590
H194        H  0.75683776  0.52632199  0.00873916     0.06120
H195        H  0.87488437  0.58193790  0.07943222     0.05970
C196        C  0.41426754  0.21053021  0.08787090     0.03010
C197        C  0.42204604  0.25794854  0.07245033    -0.13140
C198        C  0.43053235  0.26368514  0.04363559     0.00510
C199        C  0.43342631  0.22128172  0.03058718    -0.11670
C200        C  0.43013816  0.17497959  0.04620859     0.03000
C201        C  0.42152195  0.17107513  0.07503818    -0.11090
H202        H  0.42182261  0.29066439  0.08325694     0.08590
H203        H  0.43900940  0.22482512  0.00832343     0.06120
H204        H  0.42062025  0.13732852  0.08777784     0.05970
C205        C  0.82077859  0.64203489  0.42383601     0.03010
C206        C  0.77421702  0.63186550  0.43796819    -0.13140
C207        C  0.75398029  0.59206428  0.46011352     0.00510
C208        C  0.78805123  0.57056151  0.47140375    -0.11670
C209        C  0.83958655  0.58730731  0.46014426     0.03000
C210        C  0.85437309  0.62172370  0.43600901    -0.11090
H211        H  0.75165432  0.65233065  0.43010467     0.08590
H212        H  0.77391671  0.53918212  0.48800954     0.06120
H213        H  0.89033306  0.62889273  0.42551278     0.05970
C214        C  0.77531292  0.22340970  0.40882426     0.03010
C215        C  0.81741977  0.26690168  0.42426374    -0.13140
C216        C  0.81888652  0.26586612  0.45354167     0.00510
C217        C  0.77485646  0.22148429  0.46752553    -0.11670
C218        C  0.72960914  0.17901133  0.45231990     0.03000
C219        C  0.73144652  0.17977300  0.42296806    -0.11090
H220        H  0.84947118  0.30223631  0.41326240     0.08590
H221        H  0.77552249  0.22062490  0.49014218     0.06120
H222        H  0.69825798  0.14669322  0.41100883     0.05970
C223        C  0.37072943  0.19172850  0.42650097     0.03010
C224        C  0.39046355  0.24296960  0.43846144    -0.13140
C225        C  0.42550446  0.25741171  0.46284899     0.00510
C226        C  0.43909615  0.21825706  0.47566709    -0.11670
C227        C  0.41594274  0.16461100  0.46464807     0.03000
C228        C  0.37936490  0.15155438  0.44089362    -0.11090
H229        H  0.38237026  0.27341158  0.42740091     0.08590
H230        H  0.46973740  0.23056510  0.49296643     0.06120
H231        H  0.36296508  0.11182983  0.43132785     0.05970
C232        C  0.94283911  0.00683942  0.27748247     0.03010
C233        C  0.99787462  0.01923155  0.27737847    -0.13140
C234        C  0.01126545  0.98537043  0.26361884     0.00510
C235        C  0.96945164  0.93572940  0.25274438    -0.11670
C236        C  0.91393936  0.92196925  0.25338475     0.03000
C237        C  0.90082488  0.95752237  0.26576949    -0.11090
H238        H  0.03088453  0.05845310  0.28513956     0.08590
H239        H  0.98045179  0.90931257  0.24261359     0.06120
H240        H  0.85831457  0.94858635  0.26430359     0.05970
C241        C  0.84762609  0.79566369  0.21054344    -0.26440
C242        C  0.81364334  0.75777945  0.23068274    -0.14510
C243        C  0.79798262  0.77652102  0.25292779     0.36120
C244        C  0.82690532  0.83313089  0.25828513    -0.25890
C245        C  0.86999887  0.86990895  0.24139505    -0.15130
C246        C  0.87632702  0.85209583  0.21583155     0.37200
N247        N  0.91515105  0.89056244  0.19646195    -0.89380
H248        H  0.85845759  0.78108341  0.19296981     0.18310
H249        H  0.82060831  0.84723385  0.27746826     0.18310
N250        N  0.75975349  0.73741530  0.27247191    -0.88410
H251        H  0.94411646  0.87835082  0.19357719     0.35680
H252        H  0.89366717  0.88784465  0.17726398     0.40780
H253        H  0.72124997  0.71583105  0.26170934     0.40400
H254        H  0.75464690  0.75793400  0.28846072     0.35290
C255        C  0.77962724  0.55746073  0.16104700    -0.26440
C256        C  0.82883098  0.60059526  0.17298740    -0.14510
C257        C  0.86972449  0.63930084  0.15504410     0.36120
C258        C  0.86016964  0.63389984  0.12580863    -0.25890
C259        C  0.81017760  0.59178924  0.11410425    -0.15130
C260        C  0.76992607  0.55254556  0.13195044     0.37200
N261        N  0.71948547  0.50740323  0.12043955    -0.89380
H262        H  0.74807097  0.52749546  0.17451059     0.18310
H263        H  0.89129806  0.66343794  0.11202050     0.18310
N264        N  0.91998816  0.68483812  0.16635468    -0.88410
H265        H  0.69400493  0.48246499  0.13635152     0.35680
H266        H  0.72998383  0.48260097  0.10993353     0.40780
H267        H  0.90941656  0.71108115  0.17542040     0.40400
H268        H  0.94622375  0.70815958  0.15037362     0.35290
C269        C  0.77765562  0.64009946  0.37623398    -0.26440
C270        C  0.82617645  0.66065465  0.39363290    -0.14510
C271        C  0.87782046  0.68980786  0.38096574     0.36120
C272        C  0.87941183  0.69078892  0.35155999    -0.25890
C273        C  0.83045505  0.66492317  0.33451659    -0.15130
C274        C  0.77924214  0.64256387  0.34712281     0.37200
N275        N  0.72814966  0.62005336  0.33058692    -0.89380
H276        H  0.73748610  0.61816650  0.38506311     0.18310
H277        H  0.91903358  0.70975467  0.34208232     0.18310
N278        N  0.92837373  0.71713169  0.39794530    -0.88410
H279        H  0.70765224  0.64101609  0.33513711     0.35680
H280        H  0.70360813  0.57842204  0.33658078     0.40780
H281        H  0.92765056  0.74841480  0.40840304     0.40400
H282        H  0.96253316  0.73646870  0.38544269     0.35290
C283        C  0.08809533  0.05501062  0.23657827    -0.26440
C284        C  0.06781681  0.00866601  0.25485634    -0.14510
C285        C  0.10206466  0.98766711  0.26515882     0.36120
C286        C  0.15795501  0.01640334  0.25895269    -0.25890
C287        C  0.17959860  0.06609532  0.24292111    -0.15130
C288        C  0.14381645  0.08398076  0.23036826     0.37200
N289        N  0.16472483  0.13277899  0.21243599    -0.89380
H290        H  0.06066582  0.06979537  0.22804307     0.18310
H291        H  0.18518565  0.00229793  0.26861097     0.18310
N292        N  0.08099251  0.93930900  0.28316992    -0.88410
H293        H  0.13294229  0.14054194  0.20525032     0.35680
H294        H  0.17919811  0.12486239  0.19482757     0.40780
H295        H  0.10411449  0.95004559  0.30222822     0.40400
H296        H  0.08736912  0.91010590  0.27407110     0.35290
C297        C  0.34545254  0.20255630  0.15521481    -0.26440
C298        C  0.37759093  0.19074423  0.17521666    -0.14510
C299        C  0.42170529  0.18542985  0.16651134     0.36120
C300        C  0.43266786  0.19205882  0.13793991    -0.25890
C301        C  0.39993536  0.20296736  0.11773905    -0.15130
C302        C  0.35458536  0.20676928  0.12656792     0.37200
N303        N  0.31576714  0.21286973  0.10728615    -0.89380
H304        H  0.31105564  0.20590722  0.16178640     0.18310
H305        H  0.46739596  0.18928103  0.13140611     0.18310
N306        N  0.45586388  0.17440176  0.18676826    -0.88410
H307        H  0.27631681  0.17970082  0.11112534     0.35680
H308        H  0.32180744  0.20866136  0.08663015     0.40780
H309        H  0.47626553  0.20826786  0.19983360     0.40400
H310        H  0.48654593  0.17176899  0.17697003     0.35290
C311        C  0.38430830  0.18364206  0.34967521    -0.26440
C312        C  0.33072676  0.16671761  0.33850605    -0.14510
C313        C  0.28960544  0.16053399  0.35620421     0.36120
C314        C  0.30310195  0.16935344  0.38506722    -0.25890
C315        C  0.35691332  0.18568838  0.39609921    -0.15130
C316        C  0.39807219  0.19418032  0.37790103     0.37200
N317        N  0.45469006  0.21477249  0.38735869    -0.89380
H318        H  0.41649728  0.19027844  0.33608187     0.18310
H319        H  0.27149779  0.16306856  0.39892015     0.18310
N320        N  0.23400102  0.14390716  0.34593848    -0.88410
H321        H  0.45696713  0.18717600  0.40232531     0.35680
H322        H  0.46928363  0.25270238  0.39662514     0.40780
H323        H  0.22870755  0.13700905  0.32450118     0.40400
H324        H  0.22710936  0.17666469  0.34883326     0.35290
C325        C  0.81427642  0.44295492  0.33051288    -0.26440
C326        C  0.81170265  0.40557549  0.31145793    -0.14510
C327        C  0.85849822  0.42846347  0.29507831     0.36000
C328        C  0.87695248  0.48224757  0.28369868    -0.25890
C329        C  0.85573869  0.51333130  0.29404129    -0.15130
C330        C  0.82999887  0.49662515  0.31996239     0.37200
N331        N  0.81678104  0.53199413  0.33411437    -0.89380
H332        H  0.79004442  0.42759242  0.34889007     0.18310
H333        H  0.90251443  0.49690138  0.26578198     0.18310
N334        N  0.87864838  0.39435120  0.28597890    -0.88410
H335        H  0.80061121  0.51411226  0.35345711     0.35680
H336        H  0.78510939  0.53445251  0.32228297     0.40780
H337        H  0.92050152  0.41258429  0.29243944     0.40400
H338        H  0.87640292  0.39475215  0.26411745     0.35290
C339        C  0.52257217  0.24421880  0.29886459    -0.26440
C340        C  0.49490030  0.27038960  0.28557839    -0.14510
C341        C  0.52037103  0.32868012  0.28581878     0.36120
C342        C  0.57577467  0.35931323  0.29558365    -0.25890
C343        C  0.60608436  0.33258600  0.30314138    -0.15130
C344        C  0.57817375  0.27498999  0.30783137     0.37200
N345        N  0.60833760  0.24770725  0.31795224    -0.89380
H346        H  0.50201519  0.19947727  0.30060452     0.18310
H347        H  0.59773524  0.40392756  0.29257050     0.18310
N348        N  0.49185475  0.35678584  0.27427463    -0.88410
H349        H  0.58211934  0.20480845  0.31893124     0.35680
H350        H  0.62259098  0.25996884  0.33848987     0.40780
H351        H  0.48681959  0.35153384  0.25265044     0.40400
H352        H  0.51608458  0.39938304  0.27719497     0.35290
C353        C  0.86238228  0.07709956  0.28947028    -0.26440
C354        C  0.89075377  0.12478878  0.27251789    -0.14510
C355        C  0.94279344  0.13917494  0.26287787     0.36120
C356        C  0.96247292  0.10229852  0.26792447    -0.25890
C357        C  0.93086119  0.05128396  0.28197553    -0.15130
C358        C  0.88236457  0.04032861  0.29445895     0.37200
N359        N  0.85223936  0.99085486  0.31110345    -0.89380
H360        H  0.82320191  0.06693257  0.29764060     0.18310
H361        H  0.99974782  0.11103356  0.25812854     0.18310
N362        N  0.97313897  0.18847717  0.24589060    -0.88410
H363        H  0.81211142  0.96851614  0.30208305     0.35680
H364        H  0.84940036  0.00234571  0.33095936     0.40780
H365        H  0.95071938  0.18318135  0.22674741     0.40400
H366        H  0.01136851  0.19350803  0.24130623     0.35290
C367        C  0.81543012  0.14272607  0.11753596    -0.26440
C368        C  0.82242325  0.19036169  0.10238617    -0.14510
C369        C  0.83561029  0.23829121  0.11695041     0.36120
C370        C  0.84318879  0.23798372  0.14603459    -0.25890
C371        C  0.83388567  0.18991526  0.16122476    -0.15130
C372        C  0.81990854  0.14163050  0.14699293     0.37200
N373        N  0.81094377  0.09217842  0.16233788    -0.89380
H374        H  0.80482471  0.10591258  0.10636841     0.18310
H375        H  0.85219946  0.27446178  0.15711041     0.18310
N376        N  0.83804248  0.28606612  0.10237445    -0.88410
H377        H  0.80397815  0.06149275  0.14859508     0.35680
H378        H  0.77449822  0.07691079  0.17286322     0.40780
H379        H  0.79833431  0.27443103  0.09378129     0.40400
H380        H  0.84830354  0.31764706  0.11620648     0.35290
C381        C  0.74094484  0.21031140  0.32991078    -0.26440
C382        C  0.79248392  0.22431670  0.32004995    -0.14510
C383        C  0.83789891  0.23795292  0.33931142     0.36120
C384        C  0.83085925  0.23737099  0.36795697    -0.25890
C385        C  0.77949922  0.22358516  0.37802504    -0.15130
C386        C  0.73414881  0.21064595  0.35871044     0.37200
N387        N  0.68174381  0.19862875  0.36830312    -0.89380
H388        H  0.70612249  0.19970500  0.31506464     0.18310
H389        H  0.86557874  0.24647176  0.38265040     0.18310
N390        N  0.89058734  0.25033095  0.32982789    -0.88410
H391        H  0.65251423  0.18875865  0.35154277     0.35680
H392        H  0.68718908  0.23467883  0.37677532     0.40780
H393        H  0.88551050  0.21433629  0.32145721     0.40400
H394        H  0.91979705  0.26021347  0.34662132     0.35290
C395        C  0.68392031  0.26312994  0.20796024    -0.26440
C396        C  0.74102727  0.28705298  0.20540608    -0.14510
C397        C  0.77238696  0.34450074  0.19962178     0.36120
C398        C  0.75007552  0.37769475  0.20526724    -0.25890
C399        C  0.70097671  0.35301477  0.21962114    -0.15130
C400        C  0.66298162  0.29691245  0.21440480     0.37200
N401        N  0.60623934  0.27263172  0.22100789    -0.89380
H402        H  0.65754829  0.21859926  0.20955863     0.18310
H403        H  0.77735335  0.42211420  0.20581819     0.18310
N404        N  0.82847403  0.36944905  0.19171923    -0.88410
H405        H  0.59816075  0.24268842  0.23699350     0.35680
H406        H  0.58178387  0.25262696  0.20326646     0.40780
H407        H  0.85403547  0.39744085  0.20702703     0.40400
H408        H  0.83197786  0.39184966  0.17293790     0.35290
C409        C  0.60132724  0.10911739  0.49583870    -0.26440
C410        C  0.57151123  0.05615394  0.48447350    -0.14510
C411        C  0.59727005  0.04184320  0.46500904     0.36120
C412        C  0.65073519  0.08095966  0.45672206    -0.25890
C413        C  0.67851849  0.13563759  0.46623193    -0.15130
C414        C  0.65339547  0.14935909  0.48646150     0.37200
N415        N  0.67881497  0.20492157  0.49617523    -0.89380
H416        H  0.58207768  0.12048124  0.51088767     0.18310
H417        H  0.66932329  0.06919871  0.44149239     0.18310
N418        N  0.56796364  0.98934384  0.45195314    -0.88410
H419        H  0.65518492  0.20789425  0.51111317     0.35680
H420        H  0.67918371  0.23039798  0.47914969     0.40780
H421        H  0.59118204  0.96952288  0.45581782     0.40400
H422        H  0.56549592  0.99632099  0.43034972     0.35290
C423        C  0.46462575  0.07223564  0.50651109    -0.26440
C424        C  0.47918567  0.05166979  0.48456114    -0.14510
C425        C  0.47068423  0.06671656  0.45683365     0.36120
C426        C  0.45079860  0.10328473  0.45159928    -0.25890
C427        C  0.43699524  0.12538945  0.47320579    -0.15130
C428        C  0.44253471  0.10794914  0.50121886     0.37200
N429        N  0.42564691  0.12448376  0.52464314    -0.89380
H430        H  0.47114366  0.06103304  0.52793177     0.18310
H431        H  0.44688245  0.11492838  0.43000175     0.18310
N432        N  0.48227350  0.04575992  0.43331020    -0.88410
H433        H  0.39566977  0.08847305  0.53451458     0.35680
H434        H  0.40586442  0.14675570  0.51814269     0.40780
H435        H  0.46160906  0.00256804  0.43511260     0.40400
H436        H  0.52474858  0.06088852  0.43335478     0.35290
C437        C  0.66084472  0.09321873  0.00168627    -0.26440
C438        C  0.68001906  0.12309370  0.02642106    -0.14510
C439        C  0.64087775  0.12110549  0.04415899     0.36120
C440        C  0.58467621  0.08661771  0.03806296    -0.25890
C441        C  0.56450387  0.05668152  0.01333055    -0.15130
C442        C  0.60353823  0.06117358  0.99447224     0.37200
N443        N  0.58570090  0.03468158  0.96798031    -0.89380
H444        H  0.69074774  0.09573816  0.98773508     0.18310
H445        H  0.55607171  0.08511848  0.05257323     0.18310
N446        N  0.65645627  0.15648059  0.06754541    -0.88410
H447        H  0.61958900  0.04139149  0.95707835     0.35680
H448        H  0.56614662  0.05278561  0.95579097     0.40780
H449        H  0.68248445  0.19738460  0.06086773     0.40400
H450        H  0.67699514  0.14518647  0.08330593     0.35290
C451        C  0.48126093  0.15234762  0.01338437    -0.26440
C452        C  0.44067731  0.13351639  0.03325253    -0.14510
C453        C  0.41499723  0.07661450  0.04183624     0.36120
C454        C  0.43609553  0.04358179  0.03380070    -0.25890
C455        C  0.47685065  0.06256980  0.01397424    -0.15130
C456        C  0.49724012  0.11727492  0.00257141     0.37200
N457        N  0.53486495  0.13918153  0.98027956    -0.89380
H458        H  0.50151432  0.19515534  0.00607575     0.18310
H459        H  0.41956098  0.00222550  0.04291471     0.18310
N460        N  0.36572053  0.04981722  0.05732864    -0.88410
H461        H  0.51715121  0.15334214  0.96423497     0.35680
H462        H  0.53765266  0.10786107  0.97131150     0.40780
H463        H  0.34715182  0.07410113  0.05774648     0.40400
H464        H  0.37630399  0.04186528  0.07778003     0.35290
C465        C  0.88898728  0.53859506  0.44947587    -0.26440
C466        C  0.87479648  0.56255340  0.46984454    -0.14510
C467        C  0.89822917  0.56585660  0.49754766     0.36120
C468        C  0.93260231  0.54267028  0.50408238    -0.25890
C469        C  0.94562399  0.51790517  0.48352583    -0.15130
C470        C  0.92445541  0.51761082  0.45573806     0.37200
N471        N  0.93876025  0.49689175  0.43310899    -0.89380
H472        H  0.87220183  0.53608764  0.42812866     0.18310
H473        H  0.94829172  0.54296595  0.52548041     0.18310
N474        N  0.88892452  0.59265165  0.51941360    -0.88410
H475        H  0.92041795  0.45402166  0.43530673     0.35680
H476        H  0.98178935  0.51475301  0.43351229     0.40780
H477        H  0.86533508  0.61060044  0.51206352     0.40400
H478        H  0.92739718  0.62536279  0.52607787     0.35290
C479        C  0.84826422  0.34028709  0.48758051    -0.26440
C480        C  0.86358306  0.31502155  0.46853930    -0.14510
C481        C  0.91953432  0.34261662  0.46071319     0.36120
C482        C  0.95557824  0.39748035  0.46860956    -0.25890
C483        C  0.93872339  0.42427730  0.48597268    -0.15130
C484        C  0.88535625  0.39390131  0.49663231     0.37200
N485        N  0.86815604  0.41793574  0.51632151    -0.89380
H486        H  0.80620318  0.31973085  0.49429061     0.18310
H487        H  0.99639110  0.41971136  0.46036227     0.18310
N488        N  0.94081246  0.31675743  0.44434959    -0.88410
H489        H  0.83290020  0.41840707  0.50770636     0.35680
H490        H  0.85720680  0.39247310  0.53437321     0.40780
H491        H  0.91241052  0.27466940  0.44233997     0.40400
H492        H  0.97492566  0.31824655  0.45573457     0.35290
C493        C  0.50696706  0.41478868  0.46116420    -0.26440
C494        C  0.49697067  0.42862456  0.48699942    -0.14510
C495        C  0.46588673  0.38427646  0.50619739     0.36120
C496        C  0.44309970  0.32881119  0.49804017    -0.25890
C497        C  0.45298735  0.31605064  0.47194208    -0.15130
C498        C  0.48702560  0.36024970  0.45384051     0.37200
N499        N  0.50407408  0.35142200  0.42814435    -0.89380
H500        H  0.53089913  0.44665661  0.44601162     0.18310
H501        H  0.41790504  0.29537064  0.51237568     0.18310
N502        N  0.45780686  0.39324870  0.53420632    -0.88410
H503        H  0.46992760  0.33199606  0.41413753     0.35680
H504        H  0.52169316  0.32626996  0.43237342     0.40780
H505        H  0.48017778  0.43502626  0.53880648     0.40400
H506        H  0.47467507  0.37431126  0.54790531     0.35290
C507        C  0.68262620  0.55003799  0.49727334    -0.26440
C508        C  0.69585795  0.57004300  0.46953273    -0.14510
C509        C  0.65205360  0.56587479  0.45077912     0.36120
C510        C  0.59903242  0.54611934  0.46032782    -0.25890
C511        C  0.58528097  0.52274182  0.48721632    -0.15130
C512        C  0.62789300  0.52461217  0.50598671     0.37200
N513        N  0.61749954  0.50119035  0.53392203    -0.89380
H514        H  0.71468108  0.55268607  0.51232363     0.18310
H515        H  0.56665278  0.54374009  0.44554351     0.18310
N516        N  0.65927225  0.57709247  0.42139563    -0.88410
H517        H  0.62601018  0.46870586  0.53525812     0.35680
H518        H  0.57602174  0.48397999  0.53820875     0.40780
H519        H  0.64869087  0.60731503  0.41527958     0.40400
H520        H  0.63184460  0.54097774  0.41081439     0.35290
C521        C  0.90954441  0.52847784  0.99310643    -0.26440
C522        C  0.92954891  0.50077571  0.01175274    -0.14510
C523        C  0.91204201  0.48956516  0.03929129     0.36120
C524        C  0.87569881  0.50596223  0.04770171    -0.25890
C525        C  0.85764575  0.53628708  0.02967177    -0.15130
C526        C  0.87608567  0.54862905  0.00192100     0.37200
N527        N  0.86313329  0.58210715  0.98227962    -0.89380
H528        H  0.91959893  0.53440758  0.97140942     0.18310
H529        H  0.86171307  0.49494866  0.06882507     0.18310
N530        N  0.93068627  0.46068755  0.05882843    -0.88410
H531        H  0.90062152  0.61567282  0.97604920     0.35680
H532        H  0.84343829  0.59962533  0.99167080     0.40780
H533        H  0.89598278  0.42464400  0.06577517     0.40400
H534        H  0.95063795  0.48574884  0.07602095     0.35290
C535        C  0.92205355  0.32479401  0.01916271    -0.26440
C536        C  0.86424294  0.29792230  0.01348762    -0.14510
C537        C  0.84166029  0.32922011  0.99993881     0.36120
C538        C  0.87680157  0.38567934  0.99360207    -0.25890
C539        C  0.93262860  0.41392674  0.00349757    -0.15130
C540        C  0.95508604  0.38259165  0.01724708     0.37200
N541        N  0.00873333  0.40752647  0.03174265    -0.89380
H542        H  0.94079126  0.30156368  0.02872284     0.18310
H543        H  0.85914156  0.40906657  0.98298710     0.18310
N544        N  0.78298939  0.30533026  0.99440750    -0.88410
H545        H  0.00386901  0.38948481  0.05187694     0.35680
H546        H  0.02265375  0.44887665  0.03546842     0.40780
H547        H  0.76484251  0.29679088  0.01370227     0.40400
H548        H  0.77369445  0.33371397  0.98374711     0.35290
C549        C  0.43196779  0.39911342  0.02377818    -0.26440
C550        C  0.47809104  0.42620232  0.00712528    -0.14510
C551        C  0.50097182  0.39491350  0.99801735     0.36120
C552        C  0.48373763  0.34157725  0.00946648    -0.25890
C553        C  0.44095475  0.31625043  0.02816529    -0.15130
C554        C  0.41215096  0.34407924  0.03363203     0.37200
N555        N  0.36365898  0.31687921  0.04974231    -0.89380
H556        H  0.41326504  0.42187219  0.03055517     0.18310
H557        H  0.50535414  0.32057903  0.00420873     0.18310
N558        N  0.54268739  0.41647150  0.97768990    -0.88410
H559        H  0.34749274  0.34292451  0.05189792     0.35680
H560        H  0.33353169  0.28305958  0.03845146     0.40780
H561        H  0.54618457  0.45243701  0.96792322     0.40400
H562        H  0.52836377  0.38809998  0.96164666     0.35290
C563        C  0.63630298  0.51715653  0.04908156    -0.26440
C564        C  0.67970252  0.54668811  0.03097669    -0.14510
C565        C  0.66697447  0.56349590  0.00409478     0.36120
C566        C  0.61128389  0.54734135  0.99586957    -0.25890
C567        C  0.56802541  0.51659265  0.01405260    -0.15130
C568        C  0.58193978  0.50383794  0.04151080     0.37200
N569        N  0.54201957  0.47764201  0.06259650    -0.89380
H570        H  0.64471485  0.50442132  0.06983021     0.18310
H571        H  0.60159994  0.55752496  0.97480348     0.18310
N572        N  0.70880569  0.59689487  0.98468403    -0.88410
H573        H  0.53133534  0.43601985  0.06445075     0.35680
H574        H  0.50633674  0.47992643  0.05737595     0.40780
H575        H  0.74839072  0.60926833  0.99346319     0.40400
H576        H  0.70736950  0.63334480  0.98056417     0.35290
C577        C  0.10640504  0.51161128  0.99367115    -0.26440
C578        C  0.05099785  0.48743263  0.98325300    -0.14510
C579        C  0.03356323  0.44783285  0.96236134     0.36120
C580        C  0.07063997  0.43235095  0.95329855    -0.25890
C581        C  0.12692587  0.45866656  0.96288518    -0.15130
C582        C  0.14467932  0.49962272  0.98319450     0.37200
N583        N  0.20214693  0.53162994  0.99206709    -0.89380
H584        H  0.12121740  0.54208144  0.00948234     0.18310
H585        H  0.05536121  0.40074522  0.93781142     0.18310
N586        N  0.97928021  0.42521400  0.94913410    -0.88410
H587        H  0.20821007  0.55940798  0.00738216     0.35680
H588        H  0.22332433  0.55559306  0.97478082     0.40780
H589        H  0.95948979  0.38213163  0.95160000     0.40400
H590        H  0.98339160  0.43512715  0.92773663     0.35290
C591        C  0.33833145  0.43297062  0.95640178    -0.26440
C592        C  0.31049786  0.45914430  0.96553137    -0.14510
C593        C  0.33791328  0.49934469  0.98640008     0.36120
C594        C  0.39123390  0.51218509  0.99710017    -0.25890
C595        C  0.42043171  0.48944851  0.98619672    -0.15130
C596        C  0.39334487  0.44934079  0.96555903     0.37200
N597        N  0.42251035  0.42774429  0.95243950    -0.89380
H598        H  0.31847492  0.40149676  0.94080332     0.18310
H599        H  0.41214816  0.54376324  0.01261886     0.18310
N600        N  0.31377036  0.53026513  0.99527522    -0.88410
H601        H  0.42239007  0.43725432  0.93100353     0.35680
H602        H  0.40077685  0.38467384  0.95512854     0.40780
H603        H  0.31263053  0.55484225  0.97815572     0.40400
H604        H  0.33877057  0.55745139  0.01098634     0.35290
C605        C  0.08329373  0.41006691  0.52283671    -0.26440
C606        C  0.13879197  0.44270465  0.51522166    -0.14510
C607        C  0.15343113  0.49206425  0.49930024     0.36120
C608        C  0.11330230  0.50786494  0.49259531    -0.25890
C609        C  0.06076410  0.47953061  0.50402187    -0.15130
C610        C  0.04621136  0.43003767  0.51990956     0.37200
N611        N  0.99803828  0.40241060  0.53623112    -0.89380
H612        H  0.07022371  0.37116623  0.53430169     0.18310
H613        H  0.12494111  0.54587587  0.48049553     0.18310
N614        N  0.20944929  0.52814252  0.49158995    -0.88410
H615        H  0.97031104  0.36470535  0.52705942     0.35680
H616        H  0.97849120  0.42557504  0.53728388     0.40780
H617        H  0.23374723  0.54393341  0.51000601     0.40400
H618        H  0.21279689  0.56218803  0.47961280     0.35290
C619        C  0.33746818  0.44375236  0.49531948    -0.26440
C620        C  0.32749470  0.45268957  0.52237426    -0.14510
C621        C  0.37388092  0.48275018  0.54095954     0.36120
C622        C  0.42661191  0.49669103  0.53368778    -0.25890
C623        C  0.43747628  0.48837873  0.50687683    -0.15130
C624        C  0.39215360  0.46282787  0.48708943     0.37200
N625        N  0.40163713  0.45892995  0.45853783    -0.89380
H626        H  0.30267735  0.42232517  0.48051813     0.18310
H627        H  0.46021411  0.51753412  0.54909591     0.18310
N628        N  0.37026629  0.50454317  0.56648908    -0.88410
H629        H  0.36477837  0.44437518  0.44623364     0.35680
H630        H  0.41310252  0.42885403  0.45793688     0.40780
H631        H  0.37320691  0.47993952  0.58309500     0.40400
H632        H  0.33353810  0.50549697  0.56687381     0.35290
C633        C  0.52799995  0.92536751  0.01065952    -0.26440
C634        C  0.49543911  0.93922231  0.99171423    -0.14510
C635        C  0.48186435  0.91640512  0.96475865     0.36120
C636        C  0.50042640  0.88123693  0.95748920    -0.25890
C637        C  0.53373013  0.86787738  0.97595064    -0.15130
C638        C  0.54808309  0.89076219  0.00301999     0.37200
N639        N  0.58345038  0.88098786  0.02302009    -0.89380
H640        H  0.53812317  0.94177068  0.03149191     0.18310
H641        H  0.48919373  0.86460551  0.93667086     0.18310
N642        N  0.45061160  0.92951100  0.94374324    -0.88410
H643        H  0.61882887  0.91920293  0.02703474     0.35680
H644        H  0.59710153  0.85647948  0.01491223     0.40780
H645        H  0.46860844  0.97249637  0.94165869     0.40400
H646        H  0.41001367  0.91225782  0.94969647     0.35290
C647        C  0.54926198  0.67556758  0.99673607    -0.26440
C648        C  0.53919298  0.68889014  0.96887026    -0.14510
C649        C  0.51375383  0.64538469  0.94948789     0.36120
C650        C  0.50416172  0.59238686  0.95775860    -0.25890
C651        C  0.51161549  0.57819778  0.98572305    -0.15130
C652        C  0.53391678  0.62070173  0.00562923     0.37200
N653        N  0.53857398  0.60970441  0.03506652    -0.89380
H654        H  0.56766428  0.70781337  0.01199404     0.18310
H655        H  0.48515800  0.56010485  0.94249123     0.18310
N656        N  0.49396980  0.65245184  0.92174482    -0.88410
H657        H  0.58070168  0.62824205  0.04099968     0.35680
H658        H  0.52094578  0.56750176  0.03967950     0.40780
H659        H  0.48825793  0.68665380  0.92070408     0.40400
H660        H  0.45372186  0.61935860  0.91842525     0.35290
C661        C  0.38381098  0.88831914  0.01325616    -0.26440
C662        C  0.40890551  0.94147426  0.00050459    -0.14510
C663        C  0.37484858  0.95838269  0.98489813     0.36120
C664        C  0.31756480  0.92213954  0.98238934    -0.25890
C665        C  0.29411000  0.86587805  0.99082112    -0.15130
C666        C  0.32804591  0.84928486  0.00736644     0.37200
N667        N  0.30991859  0.79308762  0.01671303    -0.89380
H668        H  0.40932418  0.87481840  0.02551527     0.18310
H669        H  0.29256625  0.93574267  0.96970365     0.18310
N670        N  0.39838785  0.00937863  0.96888501    -0.88410
H671        H  0.33328185  0.77987534  0.00698543     0.35680
H672        H  0.26889887  0.76590208  0.01084452     0.40780
H673        H  0.38070237  0.03225818  0.97468801     0.40400
H674        H  0.38732722  0.00022861  0.94775981     0.35290
C675        C  0.11404796  0.66188820  0.00539836    -0.26440
C676        C  0.10877836  0.68473925  0.97906533    -0.14510
C677        C  0.06124385  0.65171365  0.96159988     0.36120
C678        C  0.03145471  0.59440896  0.96658772    -0.25890
C679        C  0.04043815  0.57055404  0.99144338    -0.15130
C680        C  0.07806166  0.60584910  0.01239832     0.37200
N681        N  0.08134468  0.58631239  0.04056292    -0.89380
H682        H  0.14724435  0.68648065  0.02034465     0.18310
H683        H  0.00141871  0.56815030  0.95079190     0.18310
N684        N  0.04383396  0.67619546  0.93869227    -0.88410
H685        H  0.12096169  0.59183934  0.04488173     0.35680
H686        H  0.05287327  0.54424647  0.04309402     0.40780
H687        H  0.03339867  0.70306869  0.94716230     0.40400
H688        H  0.00798528  0.64607674  0.92826954     0.35290
C689        C  0.37168140  0.88452220  0.54927398    -0.26440
C690        C  0.32358434  0.86101541  0.53141410    -0.14510
C691        C  0.32860457  0.87938486  0.50303657     0.36120
C692        C  0.38120088  0.91806380  0.49309874    -0.25890
C693        C  0.42913392  0.93938206  0.51109258    -0.15130
C694        C  0.42316587  0.92486262  0.53991764     0.37200
N695        N  0.46874605  0.94954832  0.56034360    -0.89380
H696        H  0.36988541  0.87142799  0.57103693     0.18310
H697        H  0.38488704  0.92956434  0.47103842     0.18310
N698        N  0.28072619  0.85897879  0.48421092    -0.88410
H699        H  0.45714343  0.96647196  0.57551585     0.35680
H700        H  0.50305761  0.98334827  0.55168087     0.40780
H701        H  0.28697209  0.84019408  0.46778870     0.40400
H702        H  0.27756537  0.89280921  0.47585443     0.35290
C703        C  0.07426112  0.61363896  0.49550688    -0.26440
C704        C  0.05979861  0.56653254  0.51306698    -0.14510
C705        C  0.08526022  0.57377024  0.54024766     0.36120
C706        C  0.12721846  0.62624584  0.54843216    -0.25890
C707        C  0.14221470  0.67378132  0.53120550    -0.15130
C708        C  0.11412313  0.66710908  0.50449809     0.37200
N709        N  0.12401666  0.71348887  0.48632853    -0.89380
H710        H  0.05562552  0.60878247  0.47447639     0.18310
H711        H  0.14811106  0.63001866  0.56883522     0.18310
N712        N  0.06903892  0.52706815  0.55938272    -0.88410
H713        H  0.16474651  0.73304313  0.48025292     0.35680
H714        H  0.11838479  0.74124245  0.49731791     0.40780
H715        H  0.02797111  0.51270894  0.56391536     0.40400
H716        H  0.09233683  0.53888769  0.57835608     0.35290
C717        C  0.56448390  0.95514722  0.52075371    -0.26440
C718        C  0.51515306  0.93457028  0.50407160    -0.14510
C719        C  0.48984679  0.87921665  0.49507910     0.36120
C720        C  0.50962824  0.84423204  0.50597204    -0.25890
C721        C  0.55671673  0.86378254  0.52431603    -0.15130
C722        C  0.58661797  0.92113737  0.52999884     0.37200
N723        N  0.63896399  0.94452487  0.54565370    -0.89380
H724        H  0.58488373  0.99736685  0.52759425     0.18310
H725        H  0.48690713  0.80109712  0.50051012     0.18310
N726        N  0.44418776  0.85716234  0.47474555    -0.88410
H727        H  0.65539459  0.98694510  0.54807908     0.35680
H728        H  0.66650625  0.94031876  0.53388787     0.40780
H729        H  0.44201287  0.88890664  0.46306864     0.40400
H730        H  0.40784310  0.83388580  0.48540932     0.35290
C731        C  0.55809552  0.59093658  0.53316841    -0.26440
C732        C  0.53019513  0.57707900  0.50706520    -0.14510
C733        C  0.52562659  0.61826519  0.49075848     0.36120
C734        C  0.54792083  0.67197846  0.50134665    -0.25890
C735        C  0.57141896  0.68559174  0.52914596    -0.15130
C736        C  0.57640426  0.64228546  0.54486179     0.37200
N737        N  0.59664386  0.64549314  0.57332954    -0.89380
H738        H  0.56106496  0.55914567  0.54603629     0.18310
H739        H  0.54474918  0.70209751  0.48745195     0.18310
N740        N  0.49672643  0.60490712  0.46377612    -0.88410
H741        H  0.57382952  0.65432843  0.58622181     0.35680
H742        H  0.63942840  0.67214253  0.57489321     0.40780
H743        H  0.51923271  0.59543509  0.45098210     0.40400
H744        H  0.49570330  0.63920416  0.45439579     0.35290
C745        C  0.66356419  0.85686606  0.62279925    -0.26440
C746        C  0.62080272  0.80609108  0.61257961    -0.14510
C747        C  0.58798158  0.76352324  0.63183787     0.36120
C748        C  0.59963451  0.77250295  0.66047429    -0.25890
C749        C  0.64030869  0.82408480  0.67088471    -0.15130
C750        C  0.67366272  0.86639223  0.65178180     0.37200
N751        N  0.71710649  0.91878889  0.66173186    -0.89380
H752        H  0.68843118  0.88951897  0.60802827     0.18310
H753        H  0.57333904  0.73944088  0.67469690     0.18310
N754        N  0.54065811  0.71178175  0.62343942    -0.88410
H755        H  0.73735272  0.94544603  0.64495404     0.35680
H756        H  0.74643943  0.91170218  0.67316672     0.40780
H757        H  0.53206247  0.71038671  0.60190503     0.40400
H758        H  0.50599725  0.70874605  0.63207623     0.35290
C759        C  0.65309508  0.84210703  0.85148097    -0.26440
C760        C  0.61491870  0.85057279  0.83434667    -0.14510
C761        C  0.57125156  0.85144508  0.84647051     0.36120
C762        C  0.56666704  0.84376067  0.87564551    -0.25890
C763        C  0.60458913  0.83459671  0.89295180    -0.15130
C764        C  0.64899071  0.83465504  0.88057967     0.37200
N765        N  0.69099095  0.82815529  0.89667462    -0.89380
H766        H  0.68566062  0.83973793  0.84205660     0.18310
H767        H  0.53198973  0.84278203  0.88484622     0.18310
N768        N  0.53057778  0.85781348  0.82900506    -0.88410
H769        H  0.68605037  0.78983037  0.89205180     0.35680
H770        H  0.68725399  0.82816972  0.91813980     0.40780
H771        H  0.55058729  0.89720405  0.81941998     0.40400
H772        H  0.50044453  0.85657892  0.84111997     0.35290
C773        C  0.22686581  0.38104746  0.65005062    -0.26440
C774        C  0.17288233  0.34209346  0.65732249    -0.14510
C775        C  0.13089790  0.31791909  0.63610230     0.36120
C776        C  0.14432253  0.33277621  0.60794030    -0.25890
C777        C  0.19822738  0.37330450  0.60075266    -0.15130
C778        C  0.23943015  0.39855900  0.62228396     0.37200
N779        N  0.29255773  0.44498180  0.61622975    -0.89380
H780        H  0.25874919  0.40146749  0.66641220     0.18310
H781        H  0.11222797  0.31386467  0.59151820     0.18310
N782        N  0.07507440  0.27916052  0.64311869    -0.88410
H783        H  0.31844814  0.45825465  0.63436639     0.35680
H784        H  0.28613887  0.47764170  0.60929640     0.40780
H785        H  0.07463637  0.24359625  0.65155965     0.40400
H786        H  0.04886115  0.26708539  0.62505901     0.35290
C787        C  0.16506541  0.43022873  0.82780699    -0.26440
C788        C  0.17473828  0.38852463  0.81986079    -0.14510
C789        C  0.19257905  0.36158400  0.84039607     0.36120
C790        C  0.20059753  0.37703889  0.86840003    -0.25890
C791        C  0.19177841  0.41930683  0.87646523    -0.15130
C792        C  0.17442276  0.44668877  0.85582408     0.37200
N793        N  0.16808609  0.49216649  0.86317442    -0.89380
H794        H  0.15239204  0.45154314  0.81191265     0.18310
H795        H  0.21340520  0.35556610  0.88413403     0.18310
N796        N  0.20206041  0.31823192  0.83273665    -0.88410
H797        H  0.15546132  0.50793328  0.84558836     0.35680
H798        H  0.20705034  0.52387960  0.86999292     0.40780
H799        H  0.16409577  0.28549393  0.82552273     0.40400
H800        H  0.21541544  0.30291616  0.85023309     0.35290
C801        C  0.43465939  0.82616266  0.68214183    -0.26440
C802        C  0.39772052  0.81853523  0.70237992    -0.14510
C803        C  0.41938576  0.85977835  0.72261326     0.36120
C804        C  0.47429086  0.87846433  0.73285452    -0.25890
C805        C  0.50626377  0.86239029  0.71913679    -0.15130
C806        C  0.48891898  0.84174891  0.69185814     0.37200
N807        N  0.52381458  0.83156079  0.67565937    -0.89380
H808        H  0.41894421  0.80456526  0.66266513     0.18310
H809        H  0.48910359  0.89888599  0.75268493     0.18310
N810        N  0.38251511  0.86944116  0.73736885    -0.88410
H811        H  0.50545008  0.81869876  0.65569003     0.35680
H812        H  0.52606329  0.79815351  0.68533044     0.40780
H813        H  0.36654835  0.88845913  0.72315441     0.40400
H814        H  0.40458785  0.89769824  0.75314978     0.35290
C815        C  0.29303833  0.52477422  0.69641235    -0.26440
C816        C  0.24063784  0.50581285  0.70673337    -0.14510
C817        C  0.21476390  0.53803406  0.70148707     0.36120
C818        C  0.24546828  0.59196526  0.69058425    -0.25890
C819        C  0.30227459  0.61478725  0.68764855    -0.15130
C820        C  0.32372964  0.57923919  0.68622418     0.37200
N821        N  0.38000170  0.60120188  0.67931258    -0.89380
H822        H  0.31178634  0.49886062  0.69805197     0.18310
H823        H  0.22800412  0.61895652  0.69033157     0.18310
N824        N  0.15933619  0.51826000  0.70928805    -0.88410
H825        H  0.38021113  0.57842756  0.66291191     0.35680
H826        H  0.40156404  0.59503330  0.69664560     0.40780
H827        H  0.13612246  0.51980678  0.69145595     0.40400
H828        H  0.16034433  0.54516226  0.72379878     0.35290
C829        C  0.25908641  0.78688622  0.66411220    -0.26440
C830        C  0.21004055  0.77466309  0.67608257    -0.14510
C831        C  0.16325931  0.76467803  0.65849301     0.36120
C832        C  0.16754845  0.76973957  0.62928310    -0.25890
C833        C  0.21697780  0.78271802  0.61718421    -0.15130
C834        C  0.26277760  0.78967405  0.63509354     0.37200
N835        N  0.31283442  0.79731924  0.62466934    -0.89380
H836        H  0.29487352  0.79409148  0.67749769     0.18310
H837        H  0.13195727  0.76316183  0.61583020     0.18310
N838        N  0.11220579  0.75148709  0.67029155    -0.88410
H839        H  0.33327335  0.83587949  0.61447050     0.35680
H840        H  0.30303726  0.76613938  0.61067157     0.40780
H841        H  0.09621005  0.71216426  0.67985924     0.40400
H842        H  0.08290601  0.74844724  0.65453335     0.35290
C843        C  0.25161228  0.82848922  0.85327958    -0.26440
C844        C  0.20191639  0.81662664  0.83841740    -0.14510
C845        C  0.15393994  0.80029928  0.85285426     0.36120
C846        C  0.15624498  0.79436580  0.88207131    -0.25890
C847        C  0.20528507  0.80348798  0.89690584    -0.15130
C848        C  0.25359316  0.82085036  0.88236858     0.37200
N849        N  0.30359004  0.82809759  0.89694027    -0.89380
H850        H  0.28812489  0.83996482  0.84196064     0.18310
H851        H  0.11945036  0.78187548  0.89334843     0.18310
N852        N  0.10314590  0.78918774  0.83777330    -0.88410
H853        H  0.33515051  0.84080036  0.88307439     0.35680
H854        H  0.29558291  0.78946916  0.90531996     0.40780
H855        H  0.10952481  0.82624559  0.82790769     0.40400
H856        H  0.07163499  0.77728985  0.85157514     0.35290
C857        C  0.25563952  0.65603078  0.78641934    -0.26440
C858        C  0.27783442  0.71246085  0.79115568    -0.14510
C859        C  0.33265060  0.74234931  0.80282147     0.36120
C860        C  0.36784268  0.72057427  0.80047752    -0.25890
C861        C  0.34895707  0.67656204  0.78222018    -0.15130
C862        C  0.29249003  0.63632473  0.78495402     0.37200
N863        N  0.27177219  0.57838310  0.78190539    -0.89380
H864        H  0.21190307  0.62935022  0.78136384     0.18310
H865        H  0.41186571  0.74695970  0.80489836     0.18310
N866        N  0.35382117  0.79630459  0.81364436    -0.88410
H867        H  0.30471381  0.57090547  0.78130814     0.35680
H868        H  0.24871896  0.56667573  0.76286414     0.40780
H869        H  0.38711056  0.82453210  0.80189640     0.40400
H870        H  0.36895993  0.79585972  0.83422008     0.35290
C871        C  0.04631507  0.10430139  0.72873244    -0.26440
C872        C  0.02220535  0.07502367  0.75334075    -0.14510
C873        C  0.02674910  0.10416148  0.77739032     0.36120
C874        C  0.05634964  0.16198905  0.77636853    -0.25890
C875        C  0.08264664  0.19050641  0.75211535    -0.15130
C876        C  0.07730629  0.16153526  0.72808917     0.37200
N877        N  0.10325353  0.18942957  0.70280775    -0.89380
H878        H  0.04327666  0.08227785  0.71026772     0.18310
H879        H  0.06010138  0.18464556  0.79469137     0.18310
N880        N  0.00437848  0.07639898  0.80334054    -0.88410
H881        H  0.14597589  0.21247333  0.70713362     0.35680
H882        H  0.08897623  0.21664521  0.69641571     0.40780
H883        H  0.02034860  0.05030264  0.80921141     0.40400
H884        H  0.96142816  0.05252951  0.80045810     0.35290
C885        C  0.78187394  0.81265610  0.75352042    -0.26440
C886        C  0.76151394  0.82822362  0.77487585    -0.14510
C887        C  0.79807201  0.86251002  0.79602235     0.36120
C888        C  0.85491960  0.88691983  0.79348314    -0.25890
C889        C  0.87535255  0.87883203  0.76958193    -0.15130
C890        C  0.83896847  0.83881227  0.75032772     0.37200
N891        N  0.85931719  0.82927059  0.72599573    -0.89380
H892        H  0.75377036  0.78690225  0.73696428     0.18310
H893        H  0.88296311  0.91691502  0.80862420     0.18310
N894        N  0.77759654  0.87792570  0.81822028    -0.88410
H895        H  0.84633290  0.78710107  0.72580668     0.35680
H896        H  0.84117711  0.83895007  0.70829715     0.40780
H897        H  0.79452566  0.92087654  0.81710070     0.40400
H898        H  0.79170984  0.86761885  0.83720280     0.35290
C899        C  0.14942270  0.92802585  0.75371555    -0.26440
C900        C  0.13200782  0.88331390  0.73633635    -0.14510
C901        C  0.08191560  0.86271285  0.72018549     0.36120
C902        C  0.04741255  0.88435031  0.72360894    -0.25890
C903        C  0.06242792  0.92546056  0.74306228    -0.15130
C904        C  0.11437869  0.94857538  0.75784541     0.37200
N905        N  0.12968133  0.99004641  0.77828414    -0.89380
H906        H  0.18784799  0.94305901  0.76630162     0.18310
H907        H  0.00793818  0.86789882  0.71188264     0.18310
N908        N  0.06572740  0.81874181  0.70123182    -0.88410
H909        H  0.16925983  0.00240309  0.78728737     0.35680
H910        H  0.10229140  0.97196442  0.79441237     0.40780
H911        H  0.09434834  0.83424728  0.68561374     0.40400
H912        H  0.02717821  0.80777957  0.69125856     0.35290
loop_ 
_geom_bond_atom_site_label_1 
_geom_bond_atom_site_label_2 
_geom_bond_distance 
_geom_bond_site_symmetry_2 
_ccdc_geom_bond_type 
C1            C2   1.398   1_455  A
C1            C6   1.390       .  A
C1          C903   1.459       .  S
C2            C3   1.396       .  A
C2            H7   1.084       .  S
C3            C4   1.406       .  A
C3          C889   1.466       .  S
C4            C5   1.396   1_665  A
C4            H8   1.083       .  S
C5            C6   1.393   1_545  A
C5          C872   1.466       .  S
C6            H9   1.085   1_565  S
O10          V18   1.879       .  S
O10          C20   1.260       .  A
O11          V18   1.895       .  S
O11          C21   1.263       .  A
O12          V18   1.893       .  S
O12          C22   1.263       .  A
O13          V18   1.900       .  S
O13          C23   1.264       .  A
O14          V19   1.898       .  S
O14          C23   1.264       .  A
O15          V19   1.887       .  S
O15          C22   1.261       .  A
O16          V19   1.880       .  S
O16          C21   1.262       .  A
O17          V19   1.884       .  S
O17          C20   1.260       .  A
V18          V19   2.090       .  T
C20         C900   1.450       .  S
C21         C858   1.464       .  S
C22         C844   1.463       .  S
C23         C830   1.477       .  S
C24          C25   1.389       .  A
C24          C29   1.411       .  A
C24         C861   1.507       .  S
C25          C26   1.404       .  A
C25          H30   1.081       .  S
C26          C27   1.395       .  A
C26         C819   1.459       .  S
C27          C28   1.404       .  A
C27          H31   1.083       .  S
C28          C29   1.416       .  A
C28         C802   1.498       .  S
C29          H32   1.077       .  S
O33          V41   1.890       .  S
O33          C43   1.262       .  A
O34          V41   1.893       .  S
O34          C44   1.266       .  A
O35          V41   1.890       .  S
O35          C45   1.261       .  A
O36          V41   1.878       .  S
O36          C46   1.260       .  A
O37          V42   1.916       .  S
O37          C46   1.268       .  A
O38          V42   1.916       .  S
O38          C45   1.269       .  A
O39          V42   1.875       .  S
O39          C44   1.258       .  A
O40          V42   1.881       .  S
O40          C43   1.258       .  A
V41          V42   2.089       .  T
C43         C875   1.448       .  S
C44         C816   1.468       .  S
C45         C788   1.481       .  S
C46         C774   1.475       .  S
O47          V55   1.868       .  S
O47          C57   1.258       .  A
O48          V55   1.887       .  S
O48          C58   1.256       .  A
O49          V55   1.917       .  S
O49          C59   1.269       .  A
O50          V55   1.923       .  S
O50          C60   1.271       .  A
O51          V56   1.881       .  S
O51          C60   1.261       .  A
O52          V56   1.890       .  S
O52          C59   1.260       .  A
O53          V56   1.897       .  S
O53          C58   1.267       .  A
O54          V56   1.905       .  S
O54          C57   1.263       .  A
V55          V56   2.088       .  T
C57         C886   1.452       .  S
C58         C805   1.457       .  S
C59         C760   1.474       .  S
C60         C749   1.490       .  S
C61          C62   1.400       .  A
C61          C66   1.386       .  A
C61         C746   1.484       .  S
C62          C63   1.419       .  A
C62          H67   1.063       .  S
C63          C64   1.436       .  A
C63         C735   1.552       .  S
C64          C65   1.421       .  A
C64          H68   1.074       .  S
C65          C66   1.398       .  A
C65         C721   1.503       .  S
C66          H69   1.084       .  S
C70          C71   1.397       .  A
C70          C75   1.396       .  A
C70         C833   1.491       .  S
C71          C72   1.411       .  A
C71          H76   1.082       .  S
C72          C73   1.421       .  A
C72         C690   1.509       .  S
C73          C74   1.419       .  A
C73          H77   1.080       .  S
C74          C75   1.408       .  A
C74         C707   1.506       .  S
C75          H78   1.083       .  S
C79          C80   1.391       .  A
C79          C84   1.387       .  A
C79         C847   1.476       .  S
C80          C81   1.409       .  A
C80          H85   1.080       .  S
C81          C82   1.421       .  A
C81         C676   1.508       .  S
C82          C83   1.417       .  A
C82          H86   1.081   1_556  S
C83          C84   1.402       .  A
C83         C665   1.495       .  S
C84          H87   1.083       .  S
C88          C89   1.402       .  A
C88          C93   1.397       .  A
C88         C763   1.490       .  S
C89          C90   1.411       .  A
C89          H94   1.083       .  S
C90          C91   1.421       .  A
C90         C648   1.508       .  S
C91          C92   1.419       .  A
C91          H95   1.083       .  S
C92          C93   1.405       .  A
C92         C637   1.501       .  S
C93          H96   1.085       .  S
C97          C98   1.392       .  A
C97         C102   1.403       .  A
C97         C777   1.490       .  S
C98          C99   1.406       .  A
C98         H103   1.083       .  S
C99         C100   1.421       .  A
C99         C606   1.507       .  S
C100        C101   1.417       .  A
C100        H104   1.081       .  S
C101        C102   1.411       .  A
C101        C620   1.505       .  S
C102        H105   1.083       .  S
C106        C107   1.403       .  A
C106        C111   1.403       .  A
C106        C791   1.493       .  S
C107        C108   1.409       .  A
C107        H112   1.081       .  S
C108        C109   1.420       .  A
C108        C581   1.513       .  S
C109        C110   1.418       .  A
C109        H113   1.081       .  S
C110        C111   1.408       .  A
C110        C592   1.513       .  S
C111        H114   1.083       .  S
C115        C116   1.381   1_556  D
C115        C595   1.508       .  S
C115        C651   1.509       .  S
C116        C550   1.512       .  S
C116        C567   1.511       .  S
C117        C118   1.378   1_456  D
C117        C578   1.518       .  S
C117        C679   1.496       .  S
C118        C522   1.508       .  S
C118        C539   1.504       .  S
C119        C120   1.381       .  D
C119        C623   1.511       .  S
C119        C732   1.508       .  S
C120        C494   1.517       .  S
C120        C511   1.506       .  S
C121        C122   1.377   1_455  D
C121        C609   1.505       .  S
C121        C704   1.506       .  S
C122        C469   1.499       .  S
C122        C483   1.505       .  S
C123        C124   1.383   1_565  D
C123        C634   1.510   1_554  S
C123        C662   1.504       .  S
C124        C441   1.512       .  S
C124        C455   1.521       .  S
C125        C126   1.375   1_545  D
C125        C410   1.508       .  S
C125        C424   1.499       .  S
C126        C693   1.502       .  S
C126        C718   1.508       .  S
O127        V135   1.888       .  S
O127        C137   1.263       .  A
O128        V135   1.893       .  S
O128        C138   1.264       .  A
O129        V135   1.897       .  S
O129        C139   1.263       .  A
O130        V135   1.903       .  S
O130        C140   1.264       .  A
O131        V136   1.896       .  S
O131        C140   1.264       .  A
O132        V136   1.889       .  S
O132        C139   1.263       .  A
O133        V136   1.883       .  S
O133        C138   1.262       .  A
O134        V136   1.880       .  S
O134        C137   1.260       .  A
V135        V136   2.088       .  T
C137        C354   1.460       .  S
C138        C396   1.468       .  S
C139        C371   1.467       .  S
C140        C382   1.477       .  S
C141        C142   1.384       .  A
C141        C146   1.407       .  A
C141        C399   1.485       .  S
C142        C143   1.400       .  A
C142        H147   1.084       .  S
C143        C144   1.400       .  A
C143        C343   1.461       .  S
C144        C145   1.410       .  A
C144        H148   1.083       .  S
C145        C146   1.412       .  A
C145        C326   1.509       .  S
C146        H149   1.076       .  S
O150        V158   1.890       .  S
O150        C160   1.262       .  A
O151        V158   1.881       .  S
O151        C161   1.263       .  A
O152        V158   1.893       .  S
O152        C162   1.263       .  A
O153        V158   1.902       .  S
O153        C163   1.265       .  A
O154        V159   1.905       .  S
O154        C163   1.266       .  A
O155        V159   1.902       .  S
O155        C162   1.263       .  A
O156        V159   1.888       .  S
O156        C161   1.261       .  A
O157        V159   1.881       .  S
O157        C160   1.262       .  A
V158        V159   2.088       .  T
C160        C287   1.464       .  S
C161        C340   1.471       .  S
C162        C312   1.468       .  S
C163        C298   1.481       .  S
O164        V172   1.876       .  S
O164        C174   1.261       .  A
O165        V172   1.896       .  S
O165        C175   1.259       .  A
O166        V172   1.911       .  S
O166        C176   1.268       .  A
O167        V172   1.916       .  S
O167        C177   1.269       .  A
O168        V173   1.883       .  S
O168        C177   1.261       .  A
O169        V173   1.890       .  S
O169        C176   1.263       .  A
O170        V173   1.889       .  S
O170        C175   1.265       .  A
O171        V173   1.895       .  S
O171        C174   1.260       .  A
V172        V173   2.088       .  T
C174        C242   1.453       .  S
C175        C329   1.461       .  S
C176        C256   1.490       .  S
C177        C273   1.489       .  S
C178        C179   1.395       .  A
C178        C183   1.394       .  A
C178        C368   1.482       .  S
C179        C180   1.407       .  A
C179        H184   1.082       .  S
C180        C181   1.418       .  A
C180        C536   1.506       .  S
C181        C182   1.413       .  A
C181        H185   1.081   1_554  S
C182        C183   1.401       .  A
C182        C438   1.488       .  S
C183        H186   1.084       .  S
C187        C188   1.399       .  A
C187        C192   1.394       .  A
C187        C259   1.485       .  S
C188        C189   1.409       .  A
C188        H193   1.084       .  S
C189        C190   1.420       .  A
C189        C564   1.506       .  S
C190        C191   1.421       .  A
C190        H194   1.083       .  S
C191        C192   1.407       .  A
C191        C525   1.504       .  S
C192        H195   1.084       .  S
C196        C197   1.400       .  A
C196        C201   1.403       .  A
C196        C301   1.491       .  S
C197        C198   1.406       .  A
C197        H202   1.083       .  S
C198        C199   1.415       .  A
C198        C553   1.503       .  S
C199        C200   1.419       .  A
C199        H203   1.082       .  S
C200        C201   1.410       .  A
C200        C452   1.510       .  S
C201        H204   1.081       .  S
C205        C206   1.406       .  A
C205        C210   1.399       .  A
C205        C270   1.500       .  S
C206        C207   1.413       .  A
C206        H211   1.080       .  S
C207        C208   1.420       .  A
C207        C508   1.517       .  S
C208        C209   1.414       .  A
C208        H212   1.082       .  S
C209        C210   1.403       .  A
C209        C466   1.496       .  S
C210        H213   1.081       .  S
C214        C215   1.399       .  A
C214        C219   1.405       .  A
C214        C385   1.490       .  S
C215        C216   1.400       .  A
C215        H220   1.084       .  S
C216        C217   1.412       .  A
C216        C480   1.494       .  S
C217        C218   1.416       .  A
C217        H221   1.082       .  S
C218        C219   1.411       .  A
C218        C413   1.504       .  S
C219        H222   1.082       .  S
C223        C224   1.396       .  A
C223        C228   1.394       .  A
C223        C315   1.478       .  S
C224        C225   1.407       .  A
C224        H229   1.084       .  S
C225        C226   1.420       .  A
C225        C497   1.498       .  S
C226        C227   1.422       .  A
C226        H230   1.083       .  S
C227        C228   1.406       .  A
C227        C427   1.507       .  S
C228        H231   1.084       .  S
C232        C233   1.399       .  A
C232        C237   1.403   1_545  A
C232        C357   1.472       .  S
C233        C234   1.395   1_645  A
C233        H238   1.085   1_655  S
C234        C235   1.391   1_455  A
C234        C284   1.462   1_565  S
C235        C236   1.403       .  A
C235        H239   1.083       .  S
C236        C237   1.397       .  A
C236        C245   1.471       .  S
C237        H240   1.083       .  S
C241        C242   1.399       .  A
C241        C246   1.395       .  A
C241        H248   1.084       .  S
C242        C243   1.407       .  A
C243        C244   1.400       .  A
C243        N250   1.438       .  S
C244        C245   1.402       .  A
C244        H249   1.084       .  S
C245        C246   1.408       .  A
C246        N247   1.433       .  S
N247        H251   1.046       .  S
N247        H252   1.045       .  S
N250        H253   1.045       .  S
N250        H254   1.046       .  S
C255        C256   1.406       .  A
C255        C260   1.403       .  A
C255        H262   1.084       .  S
C256        C257   1.418       .  A
C257        C258   1.410       .  A
C257        N264   1.437       .  S
C258        C259   1.403       .  A
C258        H263   1.084       .  S
C259        C260   1.411       .  A
C260        N261   1.439       .  S
N261        H265   1.046       .  S
N261        H266   1.046       .  S
N264        H267   1.046       .  S
N264        H268   1.046       .  S
C269        C270   1.405       .  A
C269        C274   1.397       .  A
C269        H276   1.080       .  S
C270        C271   1.418       .  A
C271        C272   1.413       .  A
C271        N278   1.437       .  S
C272        C273   1.406       .  A
C272        H277   1.083       .  S
C273        C274   1.412       .  A
C274        N275   1.433       .  S
N275        H279   1.046       .  S
N275        H280   1.046       .  S
N278        H281   1.045       .  S
N278        H282   1.046       .  S
C283        C284   1.401       .  A
C283        C288   1.396       .  A
C283        H290   1.084       .  S
C284        C285   1.401   1_545  A
C285        C286   1.400   1_565  A
C285        N292   1.432       .  S
C286        C287   1.406       .  A
C286        H291   1.084       .  S
C287        C288   1.409       .  A
C288        N289   1.438       .  S
N289        H293   1.046       .  S
N289        H294   1.045       .  S
N292        H295   1.046       .  S
N292        H296   1.045       .  S
C297        C298   1.401       .  A
C297        C302   1.404       .  A
C297        H304   1.084       .  S
C298        C299   1.411       .  A
C299        C300   1.408       .  A
C299        N306   1.438       .  S
C300        C301   1.406       .  A
C300        H305   1.084       .  S
C301        C302   1.423       .  A
C302        N303   1.441       .  S
N303        H307   1.046       .  S
N303        H308   1.041       .  S
N306        H309   1.046       .  S
N306        H310   1.046       .  S
C311        C312   1.398       .  A
C311        C316   1.387       .  A
C311        H318   1.085       .  S
C312        C313   1.416       .  A
C313        C314   1.410       .  A
C313        N320   1.437       .  S
C314        C315   1.405       .  A
C314        H319   1.083       .  S
C315        C316   1.414       .  A
C316        N317   1.433       .  S
N317        H321   1.042       .  S
N317        H322   1.042       .  S
N320        H323   1.044       .  S
N320        H324   1.046       .  S
C325        C326   1.403       .  A
C325        C330   1.405       .  A
C325        H332   1.083       .  S
C326        C327   1.412       .  A
C327        C328   1.409       .  A
C327        N334   1.432       .  S
C328        C329   1.404       .  A
C328        H333   1.083       .  S
C329        C330   1.417       .  A
C330        N331   1.438       .  S
N331        H335   1.046       .  S
N331        H336   1.044       .  S
N334        H337   1.045       .  S
N334        H338   1.045       .  S
C339        C340   1.405       .  A
C339        C344   1.395       .  A
C339        H346   1.084       .  S
C340        C341   1.414       .  A
C341        C342   1.401       .  A
C341        N348   1.438       .  S
C342        C343   1.401       .  A
C342        H347   1.084       .  S
C343        C344   1.404       .  A
C344        N345   1.437       .  S
N345        H349   1.046       .  S
N345        H350   1.045       .  S
N348        H351   1.046       .  S
N348        H352   1.046       .  S
C353        C354   1.402       .  A
C353        C358   1.397       .  A
C353        H360   1.084       .  S
C354        C355   1.410       .  A
C355        C356   1.394       .  A
C355        N362   1.439       .  S
C356        C357   1.404       .  A
C356        H361   1.083       .  S
C357        C358   1.406       .  A
C358        N359   1.433   1_545  S
N359        H363   1.046       .  S
N359        H364   1.045   1_565  S
N362        H365   1.046       .  S
N362        H366   1.046   1_655  S
C367        C368   1.406       .  A
C367        C372   1.408       .  A
C367        H374   1.083       .  S
C368        C369   1.416       .  A
C369        C370   1.395       .  A
C369        N376   1.440       .  S
C370        C371   1.399       .  A
C370        H375   1.085       .  S
C371        C372   1.410       .  A
C372        N373   1.437       .  S
N373        H377   1.046       .  S
N373        H378   1.045       .  S
N376        H379   1.046       .  S
N376        H380   1.046       .  S
C381        C382   1.404       .  A
C381        C386   1.410       .  A
C381        H388   1.084       .  S
C382        C383   1.411       .  A
C383        C384   1.401       .  A
C383        N390   1.439       .  S
C384        C385   1.405       .  A
C384        H389   1.084       .  S
C385        C386   1.414       .  A
C386        N387   1.437       .  S
N387        H391   1.045       .  S
N387        H392   1.045       .  S
N390        H393   1.046       .  S
N390        H394   1.046       .  S
C395        C396   1.401       .  A
C395        C400   1.397       .  A
C395        H402   1.084       .  S
C396        C397   1.411       .  A
C397        C398   1.402       .  A
C397        N404   1.432       .  S
C398        C399   1.404       .  A
C398        H403   1.084       .  S
C399        C400   1.410       .  A
C400        N401   1.432       .  S
N401        H405   1.046       .  S
N401        H406   1.045       .  S
N404        H407   1.046       .  S
N404        H408   1.045       .  S
C409        C410   1.407       .  A
C409        C414   1.407       .  A
C409        H416   1.083       .  S
C410        C411   1.411       .  A
C411        C412   1.409       .  A
C411        N418   1.432   1_545  S
C412        C413   1.411       .  A
C412        H417   1.083       .  S
C413        C414   1.416       .  A
C414        N415   1.438       .  S
N415        H419   1.046       .  S
N415        H420   1.046       .  S
N418        H421   1.046       .  S
N418        H422   1.045       .  S
C423        C424   1.409       .  A
C423        C428   1.417       .  A
C423        H430   1.084       .  S
C424        C425   1.408       .  A
C425        C426   1.391       .  A
C425        N432   1.433       .  S
C426        C427   1.410       .  A
C426        H431   1.080       .  S
C427        C428   1.424       .  A
C428        N429   1.438       .  S
N429        H433   1.046       .  S
N429        H434   1.042       .  S
N432        H435   1.046       .  S
N432        H436   1.042       .  S
C437        C438   1.404       .  A
C437        C442   1.416   1_554  A
C437        H444   1.083   1_554  S
C438        C439   1.415       .  A
C439        C440   1.390       .  A
C439        N446   1.435       .  S
C440        C441   1.406       .  A
C440        H445   1.084       .  S
C441        C442   1.424   1_554  A
C442        N443   1.437       .  S
N443        H447   1.045       .  S
N443        H448   1.043       .  S
N446        H449   1.046       .  S
N446        H450   1.042       .  S
C451        C452   1.406       .  A
C451        C456   1.404       .  A
C451        H458   1.083       .  S
C452        C453   1.425       .  A
C453        C454   1.407       .  A
C453        N460   1.436       .  S
C454        C455   1.407       .  A
C454        H459   1.082       .  S
C455        C456   1.424       .  A
C456        N457   1.438   1_554  S
N457        H461   1.046       .  S
N457        H462   1.039       .  S
N460        H463   1.044       .  S
N460        H464   1.045       .  S
C465        C466   1.404       .  A
C465        C470   1.391       .  A
C465        H472   1.084       .  S
C466        C467   1.423       .  A
C467        C468   1.413       .  A
C467        N474   1.438       .  S
C468        C469   1.407       .  A
C468        H473   1.084       .  S
C469        C470   1.415       .  A
C470        N471   1.433       .  S
N471        H475   1.042       .  S
N471        H476   1.046       .  S
N474        H477   1.042       .  S
N474        H478   1.046       .  S
C479        C480   1.401       .  A
C479        C484   1.402       .  A
C479        H486   1.084       .  S
C480        C481   1.424       .  A
C481        C482   1.406       .  A
C481        N488   1.439       .  S
C482        C483   1.405       .  A
C482        H487   1.083       .  S
C483        C484   1.414       .  A
C484        N485   1.432       .  S
N485        H489   1.046       .  S
N485        H490   1.045       .  S
N488        H491   1.044       .  S
N488        H492   1.046       .  S
C493        C494   1.410       .  A
C493        C498   1.394       .  A
C493        H500   1.078       .  S
C494        C495   1.427       .  A
C495        C496   1.418       .  A
C495        N502   1.437       .  S
C496        C497   1.407       .  A
C496        H501   1.084       .  S
C497        C498   1.413       .  A
C498        N499   1.434       .  S
N499        H503   1.042       .  S
N499        H504   1.046       .  S
N502        H505   1.040       .  S
N502        H506   1.046       .  S
C507        C508   1.412       .  A
C507        C512   1.412       .  A
C507        H514   1.082       .  S
C508        C509   1.423       .  A
C509        C510   1.402       .  A
C509        N516   1.431       .  S
C510        C511   1.398       .  A
C510        H515   1.084       .  S
C511        C512   1.419       .  A
C512        N513   1.437       .  S
N513        H517   1.046       .  S
N513        H518   1.041       .  S
N516        H519   1.046       .  S
N516        H520   1.046       .  S
C521        C522   1.408   1_556  A
C521        C526   1.412   1_556  A
C521        H528   1.080       .  S
C522        C523   1.405       .  A
C523        C524   1.401       .  A
C523        N530   1.433       .  S
C524        C525   1.411       .  A
C524        H529   1.084       .  S
C525        C526   1.423       .  A
C526        N527   1.439   1_554  S
N527        H531   1.046       .  S
N527        H532   1.041       .  S
N530        H533   1.046       .  S
N530        H534   1.045       .  S
C535        C536   1.412       .  A
C535        C540   1.403       .  A
C535        H542   1.083       .  S
C536        C537   1.416   1_554  A
C537        C538   1.406       .  A
C537        N544   1.437       .  S
C538        C539   1.409   1_556  A
C538        H543   1.083       .  S
C539        C540   1.418       .  A
C540        N541   1.440   1_655  S
N541        H545   1.046       .  S
N541        H546   1.041       .  S
N544        H547   1.046   1_556  S
N544        H548   1.046       .  S
C549        C550   1.406       .  A
C549        C554   1.410       .  A
C549        H556   1.082       .  S
C550        C551   1.421   1_554  A
C551        C552   1.404   1_556  A
C551        N558   1.439       .  S
C552        C553   1.404       .  A
C552        H557   1.083       .  S
C553        C554   1.419       .  A
C554        N555   1.437       .  S
N555        H559   1.046       .  S
N555        H560   1.045       .  S
N558        H561   1.043       .  S
N558        H562   1.046       .  S
C563        C564   1.405       .  A
C563        C568   1.396       .  A
C563        H570   1.084       .  S
C564        C565   1.425       .  A
C565        C566   1.417   1_554  A
C565        N572   1.438   1_554  S
C566        C567   1.409   1_556  A
C566        H571   1.083       .  S
C567        C568   1.419       .  A
C568        N569   1.437       .  S
N569        H573   1.045       .  S
N569        H574   1.043       .  S
N572        H575   1.042       .  S
N572        H576   1.046       .  S
C577        C578   1.408       .  A
C577        C582   1.406       .  A
C577        H584   1.074   1_556  S
C578        C579   1.412       .  A
C579        C580   1.413       .  A
C579        N586   1.431   1_455  S
C580        C581   1.415       .  A
C580        H585   1.082       .  S
C581        C582   1.416       .  A
C582        N583   1.437       .  S
N583        H587   1.046   1_556  S
N583        H588   1.045       .  S
N586        H589   1.046       .  S
N586        H590   1.045       .  S
C591        C592   1.414       .  A
C591        C596   1.409       .  A
C591        H598   1.083       .  S
C592        C593   1.419       .  A
C593        C594   1.409       .  A
C593        N600   1.436       .  S
C594        C595   1.405       .  A
C594        H599   1.084   1_556  S
C595        C596   1.409       .  A
C596        N597   1.432       .  S
N597        H601   1.045       .  S
N597        H602   1.046       .  S
N600        H603   1.045       .  S
N600        H604   1.046   1_556  S
C605        C606   1.414       .  A
C605        C610   1.399       .  A
C605        H612   1.083       .  S
C606        C607   1.414       .  A
C607        C608   1.408       .  A
C607        N614   1.437       .  S
C608        C609   1.410       .  A
C608        H613   1.084       .  S
C609        C610   1.417       .  A
C610        N611   1.437   1_455  S
N611        H615   1.045       .  S
N611        H616   1.042       .  S
N614        H617   1.046       .  S
N614        H618   1.046       .  S
C619        C620   1.411       .  A
C619        C624   1.424       .  A
C619        H626   1.083       .  S
C620        C621   1.417       .  A
C621        C622   1.391       .  A
C621        N628   1.434       .  S
C622        C623   1.403       .  A
C622        H627   1.081       .  S
C623        C624   1.418       .  A
C624        N625   1.436       .  S
N625        H629   1.046       .  S
N625        H630   1.042       .  S
N628        H631   1.044       .  S
N628        H632   1.043       .  S
C633        C634   1.410   1_554  A
C633        C638   1.418       .  A
C633        H640   1.083       .  S
C634        C635   1.418       .  A
C635        C636   1.394       .  A
C635        N642   1.433       .  S
C636        C637   1.404       .  A
C636        H641   1.085       .  S
C637        C638   1.423   1_556  A
C638        N639   1.437       .  S
N639        H643   1.046       .  S
N639        H644   1.042       .  S
N642        H645   1.045       .  S
N642        H646   1.042       .  S
C647        C648   1.410       .  A
C647        C652   1.415   1_556  A
C647        H654   1.083   1_556  S
C648        C649   1.423       .  A
C649        C650   1.402       .  A
C649        N656   1.442       .  S
C650        C651   1.404       .  A
C650        H655   1.085       .  S
C651        C652   1.422   1_556  A
C652        N653   1.436       .  S
N653        H657   1.045       .  S
N653        H658   1.041       .  S
N656        H659   1.043       .  S
N656        H660   1.046       .  S
C661        C662   1.406       .  A
C661        C666   1.403       .  A
C661        H668   1.084       .  S
C662        C663   1.410   1_554  A
C663        C664   1.402       .  A
C663        N670   1.432   1_565  S
C664        C665   1.411       .  A
C664        H669   1.084       .  S
C665        C666   1.423   1_556  A
C666        N667   1.439       .  S
N667        H671   1.046       .  S
N667        H672   1.037       .  S
N670        H673   1.046       .  S
N670        H674   1.046       .  S
C675        C676   1.410   1_554  A
C675        C680   1.408       .  A
C675        H682   1.081       .  S
C676        C677   1.420       .  A
C677        C678   1.400       .  A
C677        N684   1.438       .  S
C678        C679   1.396       .  A
C678        H683   1.083       .  S
C679        C680   1.419   1_556  A
C680        N681   1.438       .  S
N681        H685   1.045       .  S
N681        H686   1.043       .  S
N684        H687   1.045       .  S
N684        H688   1.046       .  S
C689        C690   1.408       .  A
C689        C694   1.397       .  A
C689        H696   1.080       .  S
C690        C691   1.415       .  A
C691        C692   1.416       .  A
C691        N698   1.431       .  S
C692        C693   1.408       .  A
C692        H697   1.083       .  S
C693        C694   1.414       .  A
C694        N695   1.440       .  S
N695        H699   1.046       .  S
N695        H700   1.043       .  S
N698        H701   1.046       .  S
N698        H702   1.045       .  S
C703        C704   1.408       .  A
C703        C708   1.414       .  A
C703        H710   1.083       .  S
C704        C705   1.412       .  A
C705        C706   1.399       .  A
C705        N712   1.438       .  S
C706        C707   1.406       .  A
C706        H711   1.083       .  S
C707        C708   1.422       .  A
C708        N709   1.431       .  S
N709        H713   1.043       .  S
N709        H714   1.045       .  S
N712        H715   1.045       .  S
N712        H716   1.046       .  S
C717        C718   1.403       .  A
C717        C722   1.407       .  A
C717        H724   1.082       .  S
C718        C719   1.422       .  A
C719        C720   1.403       .  A
C719        N726   1.434       .  S
C720        C721   1.403       .  A
C720        H725   1.083       .  S
C721        C722   1.421       .  A
C722        N723   1.438       .  S
N723        H727   1.046       .  S
N723        H728   1.045       .  S
N726        H729   1.044       .  S
N726        H730   1.045       .  S
C731        C732   1.391       .  A
C731        C736   1.400       .  A
C731        H738   1.083       .  S
C732        C733   1.404       .  A
C733        C734   1.418       .  A
C733        N740   1.437       .  S
C734        C735   1.426       .  A
C734        H739   1.075       .  S
C735        C736   1.446       .  A
C736        N737   1.428       .  S
N737        H741   1.044       .  S
N737        H742   1.045       .  S
N740        H743   1.045       .  S
N740        H744   1.045       .  S
C745        C746   1.407       .  A
C745        C750   1.412       .  A
C745        H752   1.084       .  S
C746        C747   1.416       .  A
C747        C748   1.396       .  A
C747        N754   1.441       .  S
C748        C749   1.408       .  A
C748        H753   1.084       .  S
C749        C750   1.412       .  A
C750        N751   1.437       .  S
N751        H755   1.046       .  S
N751        H756   1.046       .  S
N754        H757   1.041       .  S
N754        H758   1.046       .  S
C759        C760   1.402       .  A
C759        C764   1.403       .  A
C759        H766   1.080       .  S
C760        C761   1.405       .  A
C761        C762   1.408       .  A
C761        N768   1.437       .  S
C762        C763   1.411       .  A
C762        H767   1.084       .  S
C763        C764   1.417       .  A
C764        N765   1.438       .  S
N765        H769   1.046       .  S
N765        H770   1.043       .  S
N768        H771   1.046       .  S
N768        H772   1.046       .  S
C773        C774   1.403       .  A
C773        C778   1.397       .  A
C773        H780   1.084       .  S
C774        C775   1.407       .  A
C775        C776   1.410       .  A
C775        N782   1.436       .  S
C776        C777   1.411       .  A
C776        H781   1.084       .  S
C777        C778   1.410       .  A
C778        N779   1.435       .  S
N779        H783   1.046       .  S
N779        H784   1.046       .  S
N782        H785   1.044       .  S
N782        H786   1.046       .  S
C787        C788   1.403       .  A
C787        C792   1.411       .  A
C787        H794   1.084       .  S
C788        C789   1.412       .  A
C789        C790   1.404       .  A
C789        N796   1.439       .  S
C790        C791   1.405       .  A
C790        H795   1.084       .  S
C791        C792   1.416       .  A
C792        N793   1.437       .  S
N793        H797   1.046       .  S
N793        H798   1.046       .  S
N796        H799   1.046       .  S
N796        H800   1.046       .  S
C801        C802   1.401       .  A
C801        C806   1.402       .  A
C801        H808   1.083       .  S
C802        C803   1.411       .  A
C803        C804   1.409       .  A
C803        N810   1.434       .  S
C804        C805   1.403       .  A
C804        H809   1.083       .  S
C805        C806   1.414       .  A
C806        N807   1.436       .  S
N807        H811   1.046       .  S
N807        H812   1.044       .  S
N810        H813   1.045       .  S
N810        H814   1.046       .  S
C815        C816   1.405       .  A
C815        C820   1.397       .  A
C815        H822   1.084       .  S
C816        C817   1.413       .  A
C817        C818   1.397       .  A
C817        N824   1.433       .  S
C818        C819   1.399       .  A
C818        H823   1.085       .  S
C819        C820   1.403       .  A
C820        N821   1.432       .  S
N821        H825   1.045       .  S
N821        H826   1.046       .  S
N824        H827   1.046       .  S
N824        H828   1.046       .  S
C829        C830   1.398       .  A
C829        C834   1.398       .  A
C829        H836   1.082       .  S
C830        C831   1.413       .  A
C831        C832   1.407       .  A
C831        N838   1.437       .  S
C832        C833   1.405       .  A
C832        H837   1.084       .  S
C833        C834   1.421       .  A
C834        N835   1.432       .  S
N835        H839   1.042       .  S
N835        H840   1.045       .  S
N838        H841   1.045       .  S
N838        H842   1.046       .  S
C843        C844   1.402       .  A
C843        C848   1.399       .  A
C843        H850   1.084       .  S
C844        C845   1.406       .  A
C845        C846   1.401       .  A
C845        N852   1.438       .  S
C846        C847   1.406       .  A
C846        H851   1.084       .  S
C847        C848   1.411       .  A
C848        N849   1.439       .  S
N849        H853   1.046       .  S
N849        H854   1.046       .  S
N852        H855   1.046       .  S
N852        H856   1.046       .  S
C857        C858   1.402       .  A
C857        C862   1.399       .  A
C857        H864   1.083       .  S
C858        C859   1.416       .  A
C859        C860   1.407       .  A
C859        N866   1.432       .  S
C860        C861   1.405       .  A
C860        H865   1.083       .  S
C861        C862   1.417       .  A
C862        N863   1.434       .  S
N863        H867   1.045       .  S
N863        H868   1.045       .  S
N866        H869   1.046       .  S
N866        H870   1.045       .  S
C871        C872   1.401       .  A
C871        C876   1.385       .  A
C871        H878   1.085       .  S
C872        C873   1.416       .  A
C873        C874   1.398       .  A
C873        N880   1.432       .  S
C874        C875   1.398       .  A
C874        H879   1.084       .  S
C875        C876   1.406       .  A
C876        N877   1.432       .  S
N877        H881   1.045       .  S
N877        H882   1.044       .  S
N880        H883   1.045       .  S
N880        H884   1.044   1_455  S
C885        C886   1.400       .  A
C885        C890   1.400       .  A
C885        H892   1.084       .  S
C886        C887   1.405       .  A
C887        C888   1.393       .  A
C887        N894   1.431       .  S
C888        C889   1.399       .  A
C888        H893   1.084       .  S
C889        C890   1.409       .  A
C890        N891   1.433       .  S
N891        H895   1.045       .  S
N891        H896   1.046       .  S
N894        H897   1.046       .  S
N894        H898   1.046       .  S
C899        C900   1.398       .  A
C899        C904   1.393       .  A
C899        H906   1.084       .  S
C900        C901   1.406       .  A
C901        C902   1.396       .  A
C901        N908   1.437       .  S
C902        C903   1.400       .  A
C902        H907   1.084       .  S
C903        C904   1.411       .  A
C904        N905   1.439       .  S
N905        H909   1.046   1_565  S
N905        H910   1.046       .  S
N908        H911   1.045       .  S
N908        H912   1.046       .  S
