geometry optimzed in LAMMPS
_audit_creation_date              2020-12-01 
_audit_creation_method            'lammps2cif' 
_symmetry_space_group_name_H-M    'P1' 
_symmetry_Int_Tables_number       1 
_symmetry_cell_setting            triclinic 
loop_ 
_symmetry_equiv_pos_as_xyz 
  x,y,z 
_cell_length_a                    51.56318472 
_cell_length_b                    50.72659940527931 
_cell_length_c                    17.270381503175706 
_cell_angle_alpha                 90.53601686774662 
_cell_angle_beta                  89.70595410765877 
_cell_angle_gamma                 120.39990035912608 
loop_ 
_atom_site_label 
_atom_site_type_symbol 
_atom_site_fract_x 
_atom_site_fract_y 
_atom_site_fract_z 
_atom_site_charge 
C1          C  0.33253761  0.16369021  0.14325771     0.31000
C2          C  0.33396669  0.16414765  0.98416980     0.31000
C3          C  0.34948403  0.14914433  0.10476811    -0.05200
C4          C  0.30205552  0.14781662  0.10215842    -0.06000
C5          C  0.34893877  0.19566157  0.10534826    -0.05800
C6          C  0.34960377  0.14902262  0.02425103    -0.05200
C7          C  0.30251783  0.14864056  0.02188942    -0.05900
C8          C  0.34866830  0.19591333  0.02434519    -0.05800
C9          C  0.36574839  0.13562236  0.00011966    -0.31200
N10         N  0.37560237  0.12758905  0.06345047     0.15300
C11         C  0.36650222  0.13646140  0.12758302    -0.31200
H12         H  0.37137011  0.13323121  0.18644613     0.17200
C13         C  0.27298045  0.13648577  0.99838571    -0.30200
N14         N  0.25504325  0.12689799  0.06190135     0.14000
C15         C  0.27250775  0.13394621  0.12568389    -0.30200
C16         C  0.36271159  0.22621442  0.00253945    -0.30500
N17         N  0.37322525  0.24407861  0.06695192     0.14500
H18         H  0.36562890  0.23482940  0.94414837     0.17100
C19         C  0.36535493  0.22575703  0.12982553    -0.30500
H20         H  0.37100870  0.23386904  0.18896544     0.17100
H21         H  0.26429592  0.12990586  0.18469320     0.17100
H22         H  0.36985282  0.13173720  0.94072946     0.17200
H23         H  0.26499801  0.13478971  0.93969246     0.17100
C24         C  0.32825381  0.16226872  0.48390270     0.31000
C25         C  0.33081382  0.16362033  0.64280362     0.31000
C26         C  0.34480844  0.14728186  0.52089306    -0.05200
C27         C  0.34538298  0.19435413  0.52180690    -0.06000
C28         C  0.29790871  0.14732690  0.52644969    -0.05800
C29         C  0.34536232  0.14751016  0.60126833    -0.05200
C30         C  0.34570608  0.19512443  0.60271864    -0.05900
C31         C  0.29898847  0.14845529  0.60693472    -0.05800
C32         C  0.36184010  0.13445952  0.62421312    -0.31200
N33         N  0.37177485  0.12674775  0.56008338     0.15300
C34         C  0.36226301  0.13508865  0.49667413    -0.31200
H35         H  0.36791483  0.13265423  0.43763081     0.17200
C36         C  0.35948796  0.22554519  0.62457006    -0.30200
N37         N  0.36922005  0.24297299  0.55995673     0.14000
C38         C  0.36119942  0.22423507  0.49718234    -0.30200
C39         C  0.26955689  0.13574100  0.63245799    -0.30500
N40         N  0.25098550  0.12589095  0.56999744     0.14500
H41         H  0.26204941  0.13314199  0.69197884     0.17100
C42         C  0.26810594  0.13309557  0.50500618    -0.30500
H43         H  0.25942784  0.12808095  0.44645674     0.17100
H44         H  0.36615301  0.23199966  0.43793219     0.17100
H45         H  0.36683315  0.13137519  0.68309836     0.17200
H46         H  0.36247487  0.23449468  0.68302770     0.17100
C47         C  0.16837055  0.33789954  0.01035734     0.31000
C48         C  0.17306530  0.33836816  0.85148994     0.31000
C49         C  0.15325371  0.35257151  0.96628974    -0.05200
C50         C  0.20066378  0.35418018  0.97700856    -0.06000
C51         C  0.15504497  0.30622775  0.97057970    -0.05800
C52         C  0.15519209  0.35265190  0.88598669    -0.05200
C53         C  0.20288554  0.35471692  0.89664809    -0.05900
C54         C  0.15640650  0.30633094  0.88958853    -0.05800
C55         C  0.13897117  0.36567580  0.85910736    -0.31200
N56         N  0.12820786  0.37393278  0.92095866     0.15300
C57         C  0.13660615  0.36586493  0.98657520    -0.31200
H58         H  0.13111362  0.36959994  0.04472702     0.17200
C59         C  0.23305746  0.36906029  0.87819343    -0.30200
N60         N  0.24933534  0.37680969  0.94485299     0.14000
C61         C  0.22970463  0.36745705  0.00539400    -0.30200
C62         C  0.14044451  0.27602468  0.86571544    -0.30500
N63         N  0.13151237  0.25796449  0.92921069     0.14500
H64         H  0.13521567  0.26757748  0.80677554     0.17100
C65         C  0.14055404  0.27603784  0.99329798    -0.30500
H66         H  0.13616216  0.26761055  0.05202400     0.17100
H67         H  0.23611329  0.36959451  0.06572166     0.17100
H68         H  0.13532467  0.36910832  0.79932970     0.17200
H69         H  0.24244712  0.37308084  0.82040204     0.17100
C70         C  0.16563676  0.33697347  0.35111472     0.31000
C71         C  0.16896926  0.33735633  0.51017510     0.31000
C72         C  0.15019294  0.35178136  0.39490635    -0.05200
C73         C  0.15157824  0.30513436  0.38975761    -0.06000
C74         C  0.19760858  0.35292873  0.38631713    -0.05800
C75         C  0.15152612  0.35185238  0.47530896    -0.05200
C76         C  0.15231120  0.30538748  0.47084340    -0.05900
C77         C  0.19896531  0.35336770  0.46664737    -0.05800
C78         C  0.13386621  0.36343647  0.50180852    -0.31200
N79         N  0.12262350  0.37096708  0.44006964     0.15300
C80         C  0.13220213  0.36347148  0.37454788    -0.31200
H81         H  0.12594443  0.36566013  0.31629159     0.17200
C82         C  0.13658586  0.27524855  0.49419967    -0.30200
N83         N  0.12819771  0.25692784  0.43055386     0.14000
C84         C  0.13757809  0.27475833  0.36660536    -0.30200
C85         C  0.22880137  0.36803630  0.48769009    -0.30500
N86         N  0.24571125  0.37632302  0.42249405     0.14500
H87         H  0.23763611  0.37222048  0.54606796     0.17100
C88         C  0.22708095  0.36681761  0.36017575    -0.30500
H89         H  0.23452578  0.36982865  0.30055159     0.17100
H90         H  0.13431239  0.26610883  0.30782732     0.17100
H91         H  0.12937868  0.36610322  0.56179909     0.17200
H92         H  0.13183847  0.26706433  0.55314666     0.17100
O93         O  0.04060128  0.48732074  0.04886920    -0.87300
C94         C  0.04889971  0.04813374  0.88438401     0.88700
Mg95       Mg  0.00712586  0.43933670  0.04364514     1.58100
O96         O  0.01579870  0.05438960  0.05729591    -0.87100
O97         O  0.05442630  0.02749244  0.12876337    -0.74400
C98         C  0.37933888  0.43497506  0.97277984     0.91600
O99         O  0.02675245  0.47512863  0.86737816    -0.74200
O100        O  0.39219382  0.41931835  0.96485639    -0.81700
Mg101      Mg  0.06755042  0.00769310  0.94768093     1.58000
C102        C  0.43778328  0.05988353  0.03948157     0.93700
O103        O  0.11194823  0.04059196  0.01272641    -0.80000
H104        H  0.01799768  0.06252151  0.17123207    -0.05300
C105        C  0.45628369  0.50168989  0.88792445     0.88600
O106        O  0.47773931  0.44823424  0.13029604    -0.74500
O107        O  0.05429095  0.04153369  0.94867696    -0.87200
O108        O  0.46490529  0.07418545  0.01509953    -0.80000
C109        C  0.06074133  0.12671392  0.96370892     0.93800
C110        C  0.12568043  0.06762269  0.04145120     0.93600
Mg111      Mg  0.43809159  0.49565753  0.05640555     1.58000
O112        O  0.39437931  0.46325196  0.99076646    -0.80000
O113        O  0.47726317  0.02838559  0.13008191    -0.74200
O114        O  0.07410188  0.11326803  0.99043767    -0.80100
O115        O  0.08040951  0.47060159  0.94188599    -0.81800
O116        O  0.43126484  0.39105444  0.02325415    -0.80100
C117        C  0.50417419  0.04943734  0.11820859     0.88100
O118        O  0.45213159  0.46238805  0.05849779    -0.87200
O119        O  0.46390275  0.01418708  0.94747283    -0.87300
O120        O  0.44875267  0.47388366  0.87735454    -0.74400
Mg121      Mg  0.06251555  0.06815616  0.05351293     1.58000
O122        O  0.03240212  0.11225064  0.95320897    -0.81800
H123        H  0.04540852  0.48549356  0.16319362    -0.05500
O124        O  0.48891942  0.44861835  0.94695607    -0.87000
H125        H  0.48644254  0.44254503  0.83217132    -0.05300
H126        H  0.44596469  0.45685310  0.17300689    -0.05500
C127        C  0.99960035  0.45422060  0.87794274     0.88100
C128        C  0.04801031  0.00007819  0.11686779     0.88600
C129        C  0.45779679  0.45567830  0.12233713     0.88700
H130        H  0.45693091  0.01506273  0.83381636    -0.05500
O131        O  0.02820705  0.05435067  0.87457174    -0.74500
Mg132      Mg  0.44197455  0.43445580  0.95610315     1.58000
H133        H  0.06141517  0.04747489  0.83455359    -0.05500
C134        C  0.06573942  0.44162645  0.94813208     0.93700
O135        O  0.47249795  0.38937071  0.04648597    -0.81700
C136        C  0.44390325  0.37616703  0.04351678     0.93700
O137        O  0.11189467  0.08219580  0.05339569    -0.81700
Mg138      Mg  0.49706625  0.06200147  0.94949422     1.58200
O139        O  0.03874898  0.42801994  0.97330733    -0.80000
O140        O  0.42373899  0.03121402  0.05076874    -0.81700
O141        O  0.48707866  0.04023469  0.45389334    -0.87300
C142        C  0.04403749  0.04727246  0.62498153     0.88700
Mg143      Mg  0.43989764  0.00712083  0.45507846     1.58100
O144        O  0.05040284  0.01191031  0.45501673    -0.87100
O145        O  0.02655248  0.05239302  0.37741296    -0.74400
C146        C  0.43041285  0.37503414  0.53717746     0.93800
O147        O  0.47311356  0.02659389  0.63440139    -0.74200
O148        O  0.41525817  0.38853112  0.54012365    -0.81700
Mg149      Mg  0.00602856  0.06751149  0.55608139     1.58000
C150        C  0.05297031  0.43083811  0.47307712     0.93700
O151        O  0.04001122  0.11222131  0.49245576    -0.80000
H152        H  0.05915751  0.01307003  0.34176698    -0.05300
C153        C  0.49625042  0.45286413  0.62316538     0.88600
O154        O  0.44794660  0.47532550  0.37260202    -0.74500
O155        O  0.03839860  0.05280612  0.55966715    -0.87200
O156        O  0.06727433  0.45872554  0.49543510    -0.80000
C157        C  0.12129982  0.05679179  0.55058371     0.93800
C158        C  0.06673388  0.12534614  0.46504117     0.93600
Mg159      Mg  0.49146236  0.43313889  0.45649407     1.58000
O160        O  0.45855187  0.38996711  0.52361606    -0.80000
O161        O  0.02399146  0.47164394  0.37931681    -0.74200
O162        O  0.10887804  0.07115986  0.52387973    -0.80100
O163        O  0.47112133  0.08242278  0.55905052    -0.81800
O164        O  0.38849472  0.42947282  0.47919369    -0.80100
C165        C  0.04485003  0.49907214  0.39063267     0.88100
O166        O  0.45939932  0.44837167  0.44837348    -0.87200
O167        O  0.00899190  0.45969578  0.56092097    -0.87300
O168        O  0.46890392  0.44566248  0.63062409    -0.74400
Mg169      Mg  0.06527116  0.05989435  0.45696393     1.58000
O170        O  0.10634695  0.02807363  0.56205387    -0.81800
H171        H  0.48579985  0.04542970  0.33951309    -0.05500
O172        O  0.44638461  0.48766641  0.55520885    -0.87000
H173        H  0.43944748  0.48598770  0.66955809    -0.05300
H174        H  0.45520938  0.44173242  0.33380782    -0.05500
C175        C  0.45214241  0.99914868  0.62336856     0.88100
C176        C  0.99978773  0.04672453  0.38710110     0.88600
C177        C  0.45399151  0.45425704  0.38319182     0.88700
H178        H  0.00898525  0.45278248  0.67485862    -0.05500
O179        O  0.04942632  0.02583342  0.63666406    -0.74500
Mg180      Mg  0.43107144  0.43944782  0.54817115     1.58000
H181        H  0.04329171  0.06030998  0.67383268    -0.05500
C182        C  0.44275157  0.06784499  0.54868729     0.93700
O183        O  0.39031018  0.47252611  0.44806384    -0.81700
C184        C  0.37554853  0.44355531  0.45448680     0.93700
O185        O  0.08035448  0.11050010  0.45470599    -0.81700
Mg186      Mg  0.05630987  0.49240422  0.55983818     1.58200
O187        O  0.42939636  0.04060805  0.52138567    -0.80000
O188        O  0.02463948  0.41637420  0.46337968    -0.81700
C189        C  0.08279579  0.15916873  0.44766943    -0.04300
C190        C  0.06634171  0.17433554  0.43459030    -0.01400
C191        C  0.08138122  0.20657691  0.42912222     0.03600
C192        C  0.11293485  0.22398918  0.43170696    -0.04300
C193        C  0.12957018  0.20912689  0.43769407    -0.01400
C194        C  0.11483709  0.17706612  0.44686049     0.03600
C195        C  0.03407129  0.15697929  0.42268976     0.38200
C196        C  0.16209846  0.22713772  0.43423321     0.38200
C197        C  0.13318638  0.16311225  0.45651403     0.36600
C198        C  0.06444844  0.22210492  0.42156544     0.36600
N199        N  0.14804454  0.15220139  0.46364859    -0.38200
N200        N  0.05083229  0.23442930  0.41597304    -0.38200
N201        N  0.18806100  0.24134299  0.43057963    -0.37600
N202        N  0.00839197  0.14318708  0.41194672    -0.37600
C203        C  0.27810135  0.39276363  0.42115166    -0.04300
C204        C  0.29372618  0.37699197  0.42938049    -0.01400
C205        C  0.32540012  0.39313487  0.43736694     0.03600
C206        C  0.34209325  0.42582658  0.43652534    -0.04300
C207        C  0.32585057  0.44129856  0.42267757    -0.01400
C208        C  0.29412898  0.42476784  0.41684120     0.03600
C209        C  0.27671305  0.34385427  0.43048749     0.38200
C210        C  0.34110405  0.47425877  0.41452342     0.38200
C211        C  0.27762148  0.44075905  0.40917568     0.36600
C212        C  0.34017926  0.37544924  0.44614728     0.36600
N213        N  0.26469784  0.45380386  0.40374014    -0.38200
N214        N  0.35157403  0.36095677  0.45312458    -0.38200
N215        N  0.35295407  0.50049802  0.40721884    -0.37600
N216        N  0.26295628  0.31741382  0.43098923    -0.37600
C217        C  0.06977762  0.41438434  0.46050257    -0.04300
C218        C  0.06167235  0.38730054  0.50170026    -0.01400
C219        C  0.07816371  0.37217860  0.49169922     0.03600
C220        C  0.10393613  0.38478941  0.44381172    -0.04300
C221        C  0.11156229  0.41149223  0.40117100    -0.01400
C222        C  0.09425200  0.42587027  0.40854233     0.03600
C223        C  0.03712436  0.37560517  0.55706467     0.38200
C224        C  0.13759675  0.42469344  0.35074250     0.38200
C225        C  0.10110959  0.45206915  0.36105246     0.36600
C226        C  0.06793445  0.34295605  0.52843642     0.36600
N227        N  0.10634622  0.47283531  0.32291743    -0.38200
N228        N  0.05961638  0.31948495  0.55716102    -0.38200
N229        N  0.15823116  0.43530551  0.30989546    -0.37600
N230        N  0.01771164  0.36637814  0.60169344    -0.37600
C231        C  0.07857592  0.16045688  0.94693060    -0.04300
C232        C  0.06494460  0.17883542  0.95185594    -0.01400
C233        C  0.08229535  0.21075636  0.94099055     0.03600
C234        C  0.11350577  0.22507399  0.92966564    -0.04300
C235        C  0.12708085  0.20714381  0.92183367    -0.01400
C236        C  0.10964676  0.17495146  0.92783988     0.03600
C237        C  0.03325493  0.16553077  0.97010009     0.38200
C238        C  0.15917177  0.22202476  0.90833663     0.38200
C239        C  0.12363503  0.15692169  0.91075039     0.36600
C240        C  0.06797988  0.22904181  0.93964855     0.36600
N241        N  0.13479306  0.14261104  0.89608761    -0.38200
N242        N  0.05620572  0.24329673  0.93694769    -0.38200
N243        N  0.18482176  0.23371973  0.89793853    -0.37600
N244        N  0.00799502  0.15512797  0.98447357    -0.37600
C245        C  0.34575122  0.41993691  0.96411043    -0.04300
C246        C  0.32955438  0.43085781  0.00748747    -0.01400
C247        C  0.29822173  0.41770582  0.99762884     0.03600
C248        C  0.28183141  0.39148376  0.95059840    -0.04300
C249        C  0.29761462  0.37956268  0.91020923    -0.01400
C250        C  0.32936146  0.39421579  0.91469915     0.03600
C251        C  0.34454949  0.45466458  0.06586843     0.38200
C252        C  0.28111510  0.35150762  0.86581295     0.38200
C253        C  0.34491066  0.38279465  0.86723956     0.36600
C254        C  0.28329977  0.43231677  0.03377302     0.36600
N255        N  0.35719773  0.37357286  0.82929443    -0.38200
N256        N  0.27259693  0.44516748  0.06286153    -0.38200
N257        N  0.26815874  0.32903867  0.83047396    -0.37600
N258        N  0.35630242  0.47339096  0.11300117    -0.37600
C259        C  0.11200075  0.39014443  0.91869190    -0.04300
C260        C  0.08092530  0.37464466  0.93252158    -0.01400
C261        C  0.06529159  0.39085646  0.93717159     0.03600
C262        C  0.08101903  0.42339045  0.93003782    -0.04300
C263        C  0.11228389  0.43840969  0.91110179    -0.01400
C264        C  0.12752822  0.42184620  0.90717372     0.03600
C265        C  0.06528063  0.34183919  0.94380190     0.38200
C266        C  0.12950650  0.47096612  0.89572499     0.38200
C267        C  0.15981808  0.43779614  0.89606703     0.36600
C268        C  0.03298540  0.37340663  0.94856050     0.36600
N269        N  0.18565593  0.45110819  0.88839731    -0.38200
N270        N  0.00720214  0.35913721  0.95720096    -0.38200
N271        N  0.14354563  0.49687200  0.88299956    -0.37600
N272        N  0.05290141  0.31568511  0.95313251    -0.37600
C273        C  0.17724809  0.34029739  0.76269248    -0.04300
C274        C  0.18325945  0.36698225  0.72235707    -0.01400
C275        C  0.18090112  0.36635383  0.64078694     0.03600
C276        C  0.17381250  0.33929228  0.59880623    -0.04300
C277        C  0.18034741  0.31874445  0.63780751    -0.01400
C278        C  0.18167494  0.31901195  0.71966401     0.03600
C279        C  0.19679222  0.39610839  0.76282728     0.38200
C280        C  0.19079609  0.30115832  0.59495475     0.38200
C281        C  0.19261182  0.30114689  0.75762703     0.36600
C282        C  0.19007070  0.39475779  0.60059164     0.36600
N283        N  0.20159366  0.28692323  0.78691118    -0.38200
N284        N  0.19771741  0.41755942  0.56894741    -0.38200
N285        N  0.19966007  0.28738130  0.56178141    -0.37600
N286        N  0.20853885  0.41950485  0.79443168    -0.37600
C287        C  0.16492796  0.33929708  0.09886639    -0.04300
C288        C  0.13850457  0.31774778  0.13826803    -0.01400
C289        C  0.13787148  0.31739767  0.22018762     0.03600
C290        C  0.16354894  0.33891444  0.26247582    -0.04300
C291        C  0.18306567  0.36635816  0.22258814    -0.01400
C292        C  0.18358647  0.36654901  0.14082660     0.03600
C293        C  0.11046358  0.30052470  0.09634956     0.38200
C294        C  0.19885348  0.39522874  0.26422379     0.38200
C295        C  0.19833998  0.39555663  0.10077551     0.36600
C296        C  0.10934461  0.29902296  0.25935172     0.36600
N297        N  0.20881660  0.41860289  0.06854918    -0.38200
N298        N  0.08635748  0.28468351  0.28982478    -0.38200
N299        N  0.21110505  0.41838901  0.29692102    -0.37600
N300        N  0.08775809  0.28727698  0.06404174    -0.37600
C301        C  0.38954052  0.11217640  0.56032579    -0.04300
C302        C  0.37547235  0.08029953  0.56768453    -0.01400
C303        C  0.39279469  0.06586242  0.56966095     0.03600
C304        C  0.42469969  0.08337406  0.56329857    -0.04300
C305        C  0.43864104  0.11585730  0.56461974    -0.01400
C306        C  0.42103323  0.12993103  0.55980337     0.03600
C307        C  0.34296762  0.06247830  0.57306919     0.38200
C308        C  0.47078681  0.13521858  0.57563489     0.38200
C309        C  0.43514185  0.16285888  0.55393067     0.36600
C310        C  0.37762925  0.03321406  0.58337428     0.36600
N311        N  0.44624970  0.18910558  0.54850977    -0.38200
N312        N  0.36549197  0.00723021  0.59524307    -0.38200
N313        N  0.49626965  0.15096780  0.58688080    -0.37600
N314        N  0.31701665  0.04834012  0.57746996    -0.37600
C315        C  0.38494905  0.27590390  0.55756604    -0.04300
C316        C  0.37125080  0.29195032  0.58634711    -0.01400
C317        C  0.38647188  0.32421660  0.58353232     0.03600
C318        C  0.41502341  0.34084651  0.54670750    -0.04300
C319        C  0.42813490  0.32411572  0.51536040    -0.01400
C320        C  0.41355530  0.29208164  0.52327471     0.03600
C321        C  0.34063082  0.27491307  0.61488252     0.38200
C322        C  0.45576507  0.33903587  0.47059886     0.38200
C323        C  0.42796225  0.27550360  0.49572479     0.36600
C324        C  0.37238703  0.33985559  0.61914022     0.36600
N325        N  0.43950176  0.26233324  0.47375020    -0.38200
N326        N  0.36096610  0.35213504  0.64764608    -0.38200
N327        N  0.47757370  0.35046873  0.43401212    -0.37600
N328        N  0.31604609  0.26118121  0.63660988    -0.37600
C329        C  0.21853268  0.10800747  0.57186198    -0.04300
C330        C  0.20146322  0.12083587  0.59894554    -0.01400
C331        C  0.16964898  0.10386735  0.59501397     0.03600
C332        C  0.15462467  0.07374615  0.56398076    -0.04300
C333        C  0.17198326  0.06037536  0.54153500    -0.01400
C334        C  0.20366641  0.07750628  0.54528971     0.03600
C335        C  0.21682412  0.15175464  0.62951841     0.38200
C336        C  0.15757527  0.02918072  0.51251184     0.38200
C337        C  0.22119095  0.06361931  0.52261093     0.36600
C338        C  0.15245781  0.11716093  0.62508147     0.36600
N339        N  0.23503856  0.05236754  0.50463716    -0.38200
N340        N  0.13876261  0.12774272  0.64942156    -0.38200
N341        N  0.14620625  0.00421911  0.49007501    -0.37600
N342        N  0.22915423  0.17641213  0.65427000    -0.37600
C343        C  0.42125620  0.07672107  0.05049075    -0.04300
C344        C  0.43403514  0.10450205  0.09282879    -0.01400
C345        C  0.41868903  0.12099652  0.09883694     0.03600
C346        C  0.39062137  0.11001762  0.06202349    -0.04300
C347        C  0.37731783  0.08163678  0.02265822    -0.01400
C348        C  0.39251612  0.06513932  0.01651258     0.03600
C349        C  0.46257444  0.11569745  0.13201482     0.38200
C350        C  0.34745811  0.06891967  0.99001812     0.38200
C351        C  0.37875838  0.03662429  0.97282584     0.36600
C352        C  0.43190980  0.14944551  0.14219638     0.36600
N353        N  0.36768664  0.01389407  0.93807756    -0.38200
N354        N  0.44236582  0.17202557  0.17748749    -0.38200
N355        N  0.32361076  0.05853190  0.96390619    -0.37600
N356        N  0.48530305  0.12454407  0.16346438    -0.37600
C357        C  0.42465468  0.34220827  0.05952361    -0.04300
C358        C  0.43760044  0.32512202  0.08799975    -0.01400
C359        C  0.42039612  0.29283858  0.09164056     0.03600
C360        C  0.39015722  0.27705936  0.06793425    -0.04300
C361        C  0.37643611  0.29362712  0.04542738    -0.01400
C362        C  0.39317276  0.32589645  0.04257957     0.03600
C363        C  0.46835056  0.34029881  0.11591619     0.38200
C364        C  0.34464463  0.27714099  0.02651341     0.38200
C365        C  0.37709530  0.34163171  0.02407784     0.36600
C366        C  0.43391220  0.27551940  0.11838042     0.36600
N367        N  0.36366546  0.35365455  0.01044090    -0.38200
N368        N  0.44455199  0.26159297  0.14004004    -0.38200
N369        N  0.31928327  0.26398237  0.01151470    -0.37600
N370        N  0.49281277  0.35220545  0.13868122    -0.37600
C371        C  0.22280724  0.11216401  0.06200440    -0.04300
C372        C  0.20521419  0.08016345  0.06489589    -0.01400
C373        C  0.17349828  0.06555477  0.06393065     0.03600
C374        C  0.15902630  0.08304136  0.05721849    -0.04300
C375        C  0.17725391  0.11556150  0.06101295    -0.01400
C376        C  0.20891535  0.12980767  0.06210828     0.03600
C377        C  0.22009167  0.06241723  0.06815340     0.38200
C378        C  0.16406931  0.13488947  0.06564170     0.38200
C379        C  0.22761779  0.16285096  0.06295057     0.36600
C380        C  0.15611077  0.03270243  0.07434776     0.36600
N381        N  0.24267621  0.18920388  0.06348089    -0.38200
N382        N  0.14242500  0.00654690  0.08375329    -0.38200
N383        N  0.15391449  0.15061258  0.07097489    -0.37600
N384        N  0.23209773  0.04837490  0.07060538    -0.37600
C385        C  0.33524011  0.16233670  0.89519955    -0.04300
C386        C  0.36109623  0.18334452  0.85299017    -0.01400
C387        C  0.36023847  0.18343182  0.77119232     0.03600
C388        C  0.33347947  0.16244806  0.73131032    -0.04300
C389        C  0.31359302  0.13555311  0.77251168    -0.01400
C390        C  0.31438000  0.13551963  0.85412944     0.03600
C391        C  0.38980220  0.20134713  0.89194257     0.38200
C392        C  0.29556277  0.10669346  0.73174045     0.38200
C393        C  0.29646091  0.10671446  0.89399824     0.36600
C394        C  0.38820063  0.20152462  0.72922906     0.36600
N395        N  0.28195383  0.08358630  0.92486275    -0.38200
N396        N  0.41067853  0.21577502  0.69639759    -0.38200
N397        N  0.28142431  0.08358988  0.69960249    -0.37600
N398        N  0.41283441  0.21550496  0.92246295    -0.37600
C399        C  0.32483226  0.16039201  0.39526309    -0.04300
C400        C  0.31994466  0.13408934  0.35358804    -0.01400
C401        C  0.32188569  0.13479551  0.27204434     0.03600
C402        C  0.32832084  0.16175419  0.23175056    -0.04300
C403        C  0.32120566  0.18185920  0.27217462    -0.01400
C404        C  0.31948764  0.18116824  0.35382077     0.03600
C405        C  0.30847140  0.10507245  0.39278881     0.38200
C406        C  0.31103087  0.19975019  0.23065585     0.38200
C407        C  0.30795307  0.19853519  0.39331996     0.36600
C408        C  0.31276519  0.10640622  0.23049357     0.36600
N409        N  0.29856735  0.21231101  0.42423287    -0.38200
N410        N  0.30525692  0.08359476  0.19801449    -0.38200
N411        N  0.30253729  0.21376210  0.19798661    -0.37600
N412        N  0.29910589  0.08181807  0.42354279    -0.37600
C413        C  0.33181807  0.66319695  0.14106092     0.31000
C414        C  0.33341759  0.66337674  0.98196684     0.31000
C415        C  0.34894609  0.64873803  0.10312486    -0.05200
C416        C  0.30138796  0.64708339  0.09980179    -0.06000
C417        C  0.34807899  0.69510538  0.10280168    -0.05800
C418        C  0.34922880  0.64854079  0.02261817    -0.05200
C419        C  0.30191255  0.64772312  0.01951195    -0.05900
C420        C  0.34790467  0.69520636  0.02180202    -0.05800
C421        C  0.36562079  0.63532353  0.99911615    -0.31200
N422        N  0.37532006  0.62729922  0.06281624     0.15300
C423        C  0.36592279  0.63609404  0.12655706    -0.31200
H424        H  0.37052488  0.63280598  0.18562660     0.17200
C425        C  0.27235191  0.63530277  0.99583352    -0.30200
N426        N  0.25438234  0.62576343  0.05930046     0.14000
C427        C  0.27182554  0.63310621  0.12318846    -0.30200
C428        C  0.36182902  0.72546173  0.99967725    -0.30500
N429        N  0.37214156  0.74349814  0.06390622     0.14500
H430        H  0.36476437  0.73393598  0.94113072     0.17100
C431        C  0.36427192  0.72526151  0.12697231    -0.30500
H432        H  0.36974125  0.73346797  0.18608211     0.17100
H433        H  0.26358451  0.62920545  0.18217013     0.17100
H434        H  0.36996333  0.63153180  0.93986477     0.17200
H435        H  0.26437873  0.63345097  0.93707456     0.17100
C436        C  0.32779274  0.66204127  0.48177268     0.31000
C437        C  0.33020620  0.66281799  0.64069919     0.31000
C438        C  0.34434985  0.64697153  0.51827596    -0.05200
C439        C  0.34481534  0.69400388  0.52042507    -0.06000
C440        C  0.29742306  0.64690353  0.52415913    -0.05800
C441        C  0.34481512  0.64689616  0.59863801    -0.05200
C442        C  0.34505907  0.69444307  0.60135413    -0.05900
C443        C  0.29842528  0.64772855  0.60468323    -0.05800
C444        C  0.36122816  0.63373068  0.62111458    -0.31200
N445        N  0.37121418  0.62624373  0.55671661     0.15300
C446        C  0.36178489  0.63482477  0.49358830    -0.31200
H447        H  0.36747448  0.63258676  0.43443581     0.17200
C448        C  0.35885047  0.72474517  0.62413890    -0.30200
N449        N  0.36866279  0.74246219  0.56006691     0.14000
C450        C  0.36068524  0.72400577  0.49670765    -0.30200
C451        C  0.26898696  0.63494557  0.63006235    -0.30500
N452        N  0.25050314  0.62535338  0.56745501     0.14500
H453        H  0.26140840  0.63216162  0.68954545     0.17100
C454        C  0.26765804  0.63277284  0.50252687    -0.30500
H455        H  0.25902846  0.62799526  0.44392243     0.17100
H456        H  0.36577954  0.73204312  0.43769780     0.17100
H457        H  0.36617719  0.63044958  0.67987472     0.17200
H458        H  0.36185245  0.73342360  0.68288418     0.17100
C459        C  0.16835242  0.83771474  0.01232191     0.31000
C460        C  0.17282824  0.83838289  0.85342464     0.31000
C461        C  0.15301884  0.85230308  0.96862877    -0.05200
C462        C  0.20061183  0.85417334  0.97863416    -0.06000
C463        C  0.15516781  0.80610483  0.97228412    -0.05800
C464        C  0.15485168  0.85243977  0.88827334    -0.05200
C465        C  0.20265550  0.85489188  0.89828572    -0.05900
C466        C  0.15640093  0.80633999  0.89130701    -0.05800
C467        C  0.13870223  0.86555231  0.86166121    -0.31200
N468        N  0.12811427  0.87389052  0.92367281     0.15300
C469        C  0.13652099  0.86574829  0.98918365    -0.31200
H470        H  0.13125060  0.86965097  0.04741737     0.17200
C471        C  0.23273223  0.86960906  0.87920739    -0.30200
N472        N  0.24924966  0.87716779  0.94541294     0.14000
C473        C  0.22975459  0.86744881  0.00636689    -0.30200
C474        C  0.14058284  0.77610732  0.86705130    -0.30500
N475        N  0.13195322  0.75793948  0.93026126     0.14500
H476        H  0.13526889  0.76777031  0.80803387     0.17100
C477        C  0.14097168  0.77587185  0.99461142    -0.30500
H478        H  0.13672823  0.76732120  0.05322101     0.17100
H479        H  0.23628792  0.86930595  0.06652608     0.17100
H480        H  0.13511091  0.86913764  0.80196095     0.17200
H481        H  0.24187890  0.87407601  0.82113782     0.17100
C482        C  0.16547400  0.83646985  0.35330369     0.31000
C483        C  0.16875899  0.83696773  0.51235913     0.31000
C484        C  0.15003200  0.85133303  0.39691304    -0.05200
C485        C  0.15138846  0.80465019  0.39212352    -0.06000
C486        C  0.19743350  0.85240039  0.38858399    -0.05800
C487        C  0.15134427  0.85145959  0.47730740    -0.05200
C488        C  0.15210272  0.80496146  0.47322648    -0.05900
C489        C  0.19875638  0.85288726  0.46890590    -0.05800
C490        C  0.13377070  0.86317382  0.50365973    -0.31200
N491        N  0.12260990  0.87075021  0.44183070     0.15300
C492        C  0.13214281  0.86313496  0.37640220    -0.31200
H493        H  0.12595376  0.86535512  0.31809451     0.17200
C494        C  0.13647600  0.77483547  0.49673789    -0.30200
N495        N  0.12815440  0.75647389  0.43317028     0.14000
C496        C  0.13749463  0.77426205  0.36914142    -0.30200
C497        C  0.22856372  0.86736646  0.49007372    -0.30500
N498        N  0.24550057  0.87550135  0.42495560     0.14500
H499        H  0.23736367  0.87153056  0.54848818     0.17100
C500        C  0.22691135  0.86611017  0.36255018    -0.30500
H501        H  0.23438238  0.86907683  0.30295321     0.17100
H502        H  0.13426773  0.76557117  0.31041041     0.17100
H503        H  0.12931222  0.86592991  0.56361289     0.17200
H504        H  0.13174650  0.76669389  0.55572300     0.17100
O505        O  0.04164406  0.98819834  0.05166427    -0.87300
C506        C  0.04887164  0.54761750  0.88095334     0.88700
Mg507      Mg  0.00829349  0.94025344  0.04759726     1.58100
O508        O  0.01561768  0.55430079  0.05300801    -0.87100
O509        O  0.05338738  0.52674003  0.12556884    -0.74400
C510        C  0.37923571  0.93579469  0.96822859     0.91600
O511        O  0.02724436  0.97580191  0.87041629    -0.74200
O512        O  0.39172672  0.91978492  0.96070633    -0.81700
Mg513      Mg  0.06688897  0.50684566  0.94549156     1.58000
C514        C  0.43751441  0.55942670  0.04462926     0.93700
O515        O  0.11111233  0.53955399  0.01112856    -0.80000
H516        H  0.01785261  0.56267984  0.16680329    -0.05300
C517        C  0.45629163  0.00169343  0.88313881     0.88600
O518        O  0.47634096  0.94722553  0.12623004    -0.74500
O519        O  0.05392658  0.54091383  0.94550615    -0.87200
O520        O  0.46475415  0.57389537  0.02116703    -0.80000
C521        C  0.06110033  0.62651938  0.96020352     0.93800
C522        C  0.12500284  0.56661788  0.03955756     0.93600
Mg523      Mg  0.43801991  0.99596855  0.05171728     1.58000
O524        O  0.39445764  0.96408133  0.98573393    -0.80000
O525        O  0.47749835  0.52832922  0.13438215    -0.74200
O526        O  0.07423966  0.61291227  0.98731331    -0.80100
O527        O  0.08121656  0.97153774  0.94267620    -0.81800
O528        O  0.42993376  0.89089824  0.02073293    -0.80100
C529        C  0.50443744  0.54938237  0.12260381     0.88100
O530        O  0.45171718  0.96243640  0.05408806    -0.87200
O531        O  0.46391963  0.51409971  0.95232084    -0.87300
O532        O  0.44853912  0.97380545  0.87291018    -0.74400
Mg533      Mg  0.06213645  0.56763196  0.05016925     1.58000
O534        O  0.03282273  0.61215214  0.94865518    -0.81800
H535        H  0.04708811  0.98639491  0.16568046    -0.05500
O536        O  0.48808798  0.94808842  0.94311949    -0.87000
H537        H  0.48595650  0.94213860  0.82830191    -0.05300
H538        H  0.44484504  0.95639786  0.16832377    -0.05500
C539        C  0.00019339  0.95474917  0.88149286     0.88100
C540        C  0.04671677  0.49921994  0.11407587     0.88600
C541        C  0.45683612  0.95525168  0.11796469     0.88700
H542        H  0.45671055  0.51506503  0.83885543    -0.05500
O543        O  0.02838424  0.55407493  0.87043200    -0.74500
Mg544      Mg  0.44127183  0.93432720  0.95217944     1.58000
H545        H  0.06150142  0.54684442  0.83152429    -0.05500
C546        C  0.06677226  0.94261484  0.95043736     0.93700
O547        O  0.47104069  0.88847222  0.04010558    -0.81700
C548        C  0.44245660  0.87560590  0.03829983     0.93700
O549        O  0.11138562  0.58138012  0.05092049    -0.81700
Mg550      Mg  0.49690248  0.56198759  0.95448634     1.58200
O551        O  0.04004512  0.92902310  0.97750997    -0.80000
O552        O  0.42347163  0.53071018  0.05531544    -0.81700
O553        O  0.48764862  0.54073968  0.45155083    -0.87300
C554        C  0.04399767  0.54679482  0.62586676     0.88700
Mg555      Mg  0.44040900  0.50767364  0.45162486     1.58100
O556        O  0.04967200  0.51128288  0.45535741    -0.87100
O557        O  0.02566140  0.55178194  0.37867545    -0.74400
C558        C  0.43031700  0.87456517  0.53975876     0.93800
O559        O  0.47309194  0.52698249  0.63182086    -0.74200
O560        O  0.41515988  0.88805083  0.54312181    -0.81700
Mg561      Mg  0.00583459  0.56706722  0.55820327     1.58000
C562        C  0.05343586  0.93127515  0.47369942     0.93700
O563        O  0.03968715  0.61174460  0.49421697    -0.80000
H564        H  0.05813286  0.51237895  0.34193874    -0.05300
C565        C  0.49632646  0.95243133  0.62450933     0.88600
O566        O  0.44727004  0.97477352  0.37560144    -0.74500
O567        O  0.03815271  0.55230462  0.56076210    -0.87200
O568        O  0.06770650  0.95913373  0.49635805    -0.80000
C569        C  0.12088400  0.55624434  0.54916053     0.93800
C570        C  0.06631325  0.62479775  0.46618527     0.93600
Mg571      Mg  0.49095283  0.93255266  0.45778690     1.58000
O572        O  0.45841094  0.88949752  0.52570098    -0.80000
O573        O  0.02483030  0.97235068  0.37861470    -0.74200
O574        O  0.10834425  0.57054456  0.52287588    -0.80100
O575        O  0.47129539  0.58285465  0.55621313    -0.81800
O576        O  0.38829832  0.92884345  0.48259951    -0.80100
C577        C  0.04572085  0.99974368  0.39025208     0.88100
O578        O  0.45892734  0.94780476  0.45073916    -0.87200
O579        O  0.00917570  0.96020443  0.55977416    -0.87300
O580        O  0.46901786  0.94525438  0.63279449    -0.74400
Mg581      Mg  0.06459625  0.55926062  0.45722819     1.58000
O582        O  0.10602468  0.52754852  0.56084310    -0.81800
H583        H  0.48685171  0.54598367  0.33704391    -0.05500
O584        O  0.44625418  0.98718625  0.55821497    -0.87000
H585        H  0.43963981  0.98560417  0.67270342    -0.05300
H586        H  0.45444806  0.94119773  0.33619444    -0.05500
C587        C  0.45210582  0.49957009  0.62043485     0.88100
C588        C  0.99896432  0.54618291  0.38922301     0.88600
C589        C  0.45334941  0.95370646  0.38577340     0.88700
H590        H  0.00868642  0.95315246  0.67376283    -0.05500
O591        O  0.04941376  0.52535367  0.63719166    -0.74500
Mg592      Mg  0.43095238  0.93894908  0.55113697     1.58000
H593        H  0.04340654  0.55985283  0.67486909    -0.05500
C594        C  0.44296673  0.56823745  0.54511842     0.93700
O595        O  0.38987392  0.97186271  0.45247309    -0.81700
C596        C  0.37524053  0.94287314  0.45838140     0.93700
O597        O  0.07979400  0.60986163  0.45507963    -0.81700
Mg598      Mg  0.05656652  0.99289446  0.55989909     1.58200
O599        O  0.42976835  0.54108506  0.51736063    -0.80000
O600        O  0.02514825  0.91691795  0.46306763    -0.81700
C601        C  0.08245965  0.65864983  0.44915169    -0.04300
C602        C  0.06609029  0.67397029  0.43713362    -0.01400
C603        C  0.08124025  0.70622206  0.43195194     0.03600
C604        C  0.11280137  0.72352912  0.43435794    -0.04300
C605        C  0.12934576  0.70854947  0.43976427    -0.01400
C606        C  0.11450893  0.67643292  0.44787104     0.03600
C607        C  0.03376742  0.65676548  0.42611787     0.38200
C608        C  0.16188936  0.72649949  0.43705172     0.38200
C609        C  0.13276396  0.66228533  0.45564965     0.36600
C610        C  0.06441125  0.72187737  0.42489117     0.36600
N611        N  0.14754776  0.65121992  0.46112679    -0.38200
N612        N  0.05088068  0.73430432  0.41965720    -0.38200
N613        N  0.18786958  0.74065261  0.43419347    -0.37600
N614        N  0.00803707  0.64309586  0.41616101    -0.37600
C615        C  0.27788304  0.89192497  0.42384966    -0.04300
C616        C  0.29350724  0.87618281  0.43282652    -0.01400
C617        C  0.32516254  0.89236558  0.44129837     0.03600
C618        C  0.34182014  0.92506000  0.44019730    -0.04300
C619        C  0.32558250  0.94048129  0.42566169    -0.01400
C620        C  0.29388812  0.92392011  0.41941437     0.03600
C621        C  0.27651893  0.84304599  0.43428004     0.38200
C622        C  0.34081429  0.97342808  0.41717787     0.38200
C623        C  0.27737627  0.93988875  0.41137558     0.36600
C624        C  0.33994468  0.87471588  0.45087857     0.36600
N625        N  0.26446957  0.95294113  0.40570958    -0.38200
N626        N  0.35132929  0.86024025  0.45845855    -0.38200
N627        N  0.35266932  0.99965669  0.40964054    -0.37600
N628        N  0.26280414  0.81660585  0.43507633    -0.37600
C629        C  0.07021826  0.91473375  0.46170451    -0.04300
C630        C  0.06183261  0.88751648  0.50262835    -0.01400
C631        C  0.07824084  0.87227628  0.49301120     0.03600
C632        C  0.10409596  0.88478219  0.44543250    -0.04300
C633        C  0.11196666  0.91157761  0.40293686    -0.01400
C634        C  0.09487646  0.92620253  0.41031908     0.03600
C635        C  0.03702832  0.87575401  0.55721508     0.38200
C636        C  0.13795769  0.92454467  0.35236955     0.38200
C637        C  0.10215932  0.95265148  0.36338286     0.36600
C638        C  0.06782056  0.84301123  0.52971353     0.36600
N639        N  0.10776698  0.97364254  0.32573545    -0.38200
N640        N  0.05936538  0.81950775  0.55839581    -0.38200
N641        N  0.15852329  0.93494284  0.31129313    -0.37600
N642        N  0.01739351  0.86644033  0.60119132    -0.37600
C643        C  0.07908036  0.66035464  0.94458115    -0.04300
C644        C  0.06533663  0.67865928  0.94845796    -0.01400
C645        C  0.08275015  0.71064482  0.93907944     0.03600
C646        C  0.11405699  0.72506384  0.93004346    -0.04300
C647        C  0.12779006  0.70726478  0.92306783    -0.01400
C648        C  0.11039109  0.67504146  0.92806754     0.03600
C649        C  0.03344818  0.66522792  0.96420154     0.38200
C650        C  0.15998050  0.72232503  0.91101390     0.38200
C651        C  0.12475717  0.65723226  0.91289901     0.36600
C652        C  0.06844777  0.72894267  0.93705351     0.36600
N653        N  0.13628400  0.64314657  0.89986851    -0.38200
N654        N  0.05677757  0.74328873  0.93387669    -0.38200
N655        N  0.18569710  0.73418856  0.90158842    -0.37600
N656        N  0.00803125  0.65474493  0.97656461    -0.37600
C657        C  0.34579020  0.92107138  0.96021468    -0.04300
C658        C  0.32963809  0.93055096  0.00853464    -0.01400
C659        C  0.29820041  0.91714722  0.00075740     0.03600
C660        C  0.28181645  0.89207026  0.95001144    -0.04300
C661        C  0.29781001  0.88180567  0.90384074    -0.01400
C662        C  0.32957929  0.89695166  0.90664603     0.03600
C663        C  0.34496210  0.95325105  0.06921368     0.38200
C664        C  0.28166768  0.85493038  0.85508085     0.38200
C665        C  0.34550017  0.88811057  0.85258455     0.36600
C666        C  0.28321534  0.93035492  0.04329203     0.36600
N667        N  0.35824142  0.88118621  0.80924347    -0.38200
N668        N  0.27248072  0.94203526  0.07792672    -0.38200
N669        N  0.26909961  0.83345422  0.81600235    -0.37600
N670        N  0.35707907  0.97114736  0.11795351    -0.37600
C671        C  0.11239030  0.89057643  0.92145295    -0.04300
C672        C  0.08106932  0.87522329  0.93054375    -0.01400
C673        C  0.06575211  0.89175890  0.93457760     0.03600
C674        C  0.08202470  0.92440016  0.93205808    -0.04300
C675        C  0.11363196  0.93937615  0.91759595    -0.01400
C676        C  0.12853234  0.92247050  0.91376652     0.03600
C677        C  0.06482726  0.84221488  0.93750465     0.38200
C678        C  0.13153053  0.97219754  0.90683420     0.38200
C679        C  0.16096776  0.93809411  0.90607594     0.36600
C680        C  0.03319867  0.87460118  0.93984955     0.36600
N681        N  0.18690031  0.95100804  0.90096769    -0.38200
N682        N  0.00722075  0.86063094  0.94355414    -0.38200
N683        N  0.14611744  0.99830842  0.89756341    -0.37600
N684        N  0.05201408  0.81588528  0.94338816    -0.37600
C685        C  0.17700312  0.84027355  0.76469650    -0.04300
C686        C  0.18290253  0.86688060  0.72417919    -0.01400
C687        C  0.18068074  0.86616722  0.64259207     0.03600
C688        C  0.17362678  0.83904643  0.60093187    -0.04300
C689        C  0.18027643  0.81863273  0.64015574    -0.01400
C690        C  0.18167601  0.81907561  0.72197213     0.03600
C691        C  0.19610428  0.89602587  0.76452449     0.38200
C692        C  0.19073962  0.80100363  0.59755042     0.38200
C693        C  0.19284023  0.80144459  0.76018510     0.36600
C694        C  0.18999892  0.89454492  0.60210526     0.36600
N695        N  0.20194985  0.78738234  0.78974951    -0.38200
N696        N  0.19777906  0.91733140  0.57025049    -0.38200
N697        N  0.19962228  0.78719487  0.56460793    -0.37600
N698        N  0.20750918  0.91944657  0.79602623    -0.37600
C699        C  0.16494321  0.83896082  0.10090368    -0.04300
C700        C  0.13855476  0.81726056  0.14022531    -0.01400
C701        C  0.13786687  0.81685914  0.22215391     0.03600
C702        C  0.16346540  0.83841685  0.26461543    -0.04300
C703        C  0.18298143  0.86589945  0.22485105    -0.01400
C704        C  0.18355499  0.86617433  0.14307615     0.03600
C705        C  0.11057546  0.79974604  0.09816739     0.38200
C706        C  0.19873664  0.89472924  0.26667336     0.38200
C707        C  0.19836536  0.89522982  0.10321351     0.36600
C708        C  0.10933204  0.79834589  0.26116326     0.36600
N709        N  0.20892008  0.91831063  0.07110584    -0.38200
N710        N  0.08633764  0.78388548  0.29151372    -0.38200
N711        N  0.21093622  0.91784617  0.29957231    -0.37600
N712        N  0.08793691  0.78620437  0.06566620    -0.37600
C713        C  0.38916659  0.61188853  0.55655443    -0.04300
C714        C  0.37533768  0.58005687  0.56453649    -0.01400
C715        C  0.39287667  0.56586179  0.56644504     0.03600
C716        C  0.42475062  0.58357951  0.55949697    -0.04300
C717        C  0.43847101  0.61603338  0.56005375    -0.01400
C718        C  0.42063955  0.62985438  0.55530243     0.03600
C719        C  0.34286183  0.56203528  0.57066632     0.38200
C720        C  0.47063034  0.63563449  0.57016537     0.38200
C721        C  0.43448898  0.66274350  0.54895670     0.36600
C722        C  0.37798395  0.53325854  0.58064938     0.36600
N723        N  0.44537501  0.68895528  0.54319573    -0.38200
N724        N  0.36606797  0.50730936  0.59284793    -0.38200
N725        N  0.49612592  0.65160100  0.58074280    -0.37600
N726        N  0.31693499  0.54773553  0.57567847    -0.37600
C727        C  0.38460953  0.77540886  0.55880118    -0.04300
C728        C  0.37122504  0.79152600  0.58921310    -0.01400
C729        C  0.38656439  0.82379753  0.58680773     0.03600
C730        C  0.41495914  0.84038798  0.54925682    -0.04300
C731        C  0.42788838  0.82362758  0.51702391    -0.01400
C732        C  0.41315520  0.79156022  0.52417736     0.03600
C733        C  0.34081084  0.77459521  0.61919327     0.38200
C734        C  0.45546941  0.83855974  0.47208021     0.38200
C735        C  0.42735464  0.77492064  0.49556635     0.36600
C736        C  0.37271282  0.83949171  0.62331544     0.36600
N737        N  0.43871797  0.76168935  0.47275846    -0.38200
N738        N  0.36144225  0.85181727  0.65235530    -0.38200
N739        N  0.47723859  0.84998914  0.43534298    -0.37600
N740        N  0.31640674  0.76098725  0.64224692    -0.37600
C741        C  0.21807915  0.60753370  0.56912709    -0.04300
C742        C  0.20106822  0.62048303  0.59570191    -0.01400
C743        C  0.16926487  0.60347548  0.59231658     0.03600
C744        C  0.15421614  0.57326428  0.56186394    -0.04300
C745        C  0.17154062  0.55987070  0.53929817    -0.01400
C746        C  0.20321244  0.57698549  0.54298638     0.03600
C747        C  0.21649194  0.65157943  0.62508261     0.38200
C748        C  0.15711586  0.52869847  0.51007992     0.38200
C749        C  0.22072366  0.56304061  0.52070978     0.36600
C750        C  0.15212680  0.61683635  0.62234097     0.36600
N751        N  0.23454264  0.55171603  0.50312258    -0.38200
N752        N  0.13847964  0.62747666  0.64664844    -0.38200
N753        N  0.14573660  0.50377019  0.48738498    -0.37600
N754        N  0.22888189  0.67639787  0.64875913    -0.37600
C755        C  0.42083957  0.57615279  0.05448881    -0.04300
C756        C  0.43294326  0.60347906  0.09850434    -0.01400
C757        C  0.41776772  0.62019329  0.10237907     0.03600
C758        C  0.39039622  0.60974699  0.06223003    -0.04300
C759        C  0.37773094  0.58175209  0.02106585    -0.01400
C760        C  0.39284438  0.56512442  0.01686857     0.03600
C761        C  0.46052651  0.61388488  0.14176739     0.38200
C762        C  0.34863428  0.56954722  0.98424115     0.38200
C763        C  0.37980111  0.53702450  0.97153666     0.36600
C764        C  0.43057905  0.64840926  0.14666173     0.36600
N765        N  0.36929495  0.51462313  0.93547532    -0.38200
N766        N  0.44075304  0.67082855  0.18257098    -0.38200
N767        N  0.32544029  0.55957695  0.95454123    -0.37600
N768        N  0.48243579  0.62203545  0.17664361    -0.37600
C769        C  0.42309089  0.84163857  0.05332489    -0.04300
C770        C  0.43525430  0.82508379  0.08928111    -0.01400
C771        C  0.41825911  0.79280353  0.09373433     0.03600
C772        C  0.38875350  0.77652970  0.06439153    -0.04300
C773        C  0.37560480  0.79270605  0.03457942    -0.01400
C774        C  0.39242934  0.82489899  0.02871654     0.03600
C775        C  0.46497091  0.84090739  0.12388647     0.38200
C776        C  0.34423352  0.77594071  0.01150587     0.38200
C777        C  0.37751027  0.84008898  0.99673901     0.36600
C778        C  0.43133992  0.77607386  0.12717470     0.36600
N779        N  0.36501450  0.85167227  0.97168829    -0.38200
N780        N  0.44165828  0.76265099  0.15418050    -0.38200
N781        N  0.31917017  0.76256805  0.99353121    -0.37600
N782        N  0.48861651  0.85336862  0.15186365    -0.37600
C783        C  0.22214570  0.61099336  0.05937542    -0.04300
C784        C  0.20458031  0.57896857  0.06007375    -0.01400
C785        C  0.17286529  0.56433777  0.05931225     0.03600
C786        C  0.15834767  0.58187086  0.05537269    -0.04300
C787        C  0.17656846  0.61435046  0.06159834    -0.01400
C788        C  0.20823235  0.62860542  0.06206367     0.03600
C789        C  0.21946937  0.56120553  0.06106569     0.38200
C790        C  0.16339772  0.63361709  0.06946411     0.38200
C791        C  0.22692637  0.66164117  0.06463340     0.36600
C792        C  0.15555070  0.53133646  0.06667866     0.36600
N793        N  0.24199178  0.68798786  0.06642517    -0.38200
N794        N  0.14190962  0.50504529  0.07350783    -0.38200
N795        N  0.15326014  0.64927499  0.07727916    -0.37600
N796        N  0.23141464  0.54708371  0.06178792    -0.37600
C797        C  0.33475033  0.66143776  0.89299935    -0.04300
C798        C  0.36057710  0.68245922  0.85072021    -0.01400
C799        C  0.35972387  0.68241918  0.76892359     0.03600
C800        C  0.33291489  0.66150171  0.72914624    -0.04300
C801        C  0.31302867  0.63462174  0.77034411    -0.01400
C802        C  0.31391339  0.63458280  0.85197493     0.03600
C803        C  0.38923802  0.70073437  0.88964528     0.38200
C804        C  0.29491375  0.60579607  0.72951720     0.38200
C805        C  0.29614690  0.60575897  0.89185033     0.36600
C806        C  0.38770023  0.70030184  0.72683795     0.36600
N807        N  0.28175806  0.58260367  0.92268883    -0.38200
N808        N  0.41016083  0.71435406  0.69379652    -0.38200
N809        N  0.28070949  0.58271862  0.69731644    -0.37600
N810        N  0.41224459  0.71516276  0.92010048    -0.37600
C811        C  0.32438620  0.66025308  0.39310481    -0.04300
C812        C  0.31917396  0.63380582  0.35151198    -0.01400
C813        C  0.32101892  0.63440809  0.26996705     0.03600
C814        C  0.32758066  0.66136829  0.22954925    -0.04300
C815        C  0.32065820  0.68161916  0.26992396    -0.01400
C816        C  0.31920288  0.68113840  0.35162935     0.03600
C817        C  0.30754679  0.60479797  0.39086315     0.38200
C818        C  0.31029466  0.69934666  0.22840438     0.38200
C819        C  0.30797469  0.69876888  0.39114274     0.36600
C820        C  0.31171394  0.60595593  0.22851522     0.36600
N821        N  0.29882993  0.71277383  0.42198899    -0.38200
N822        N  0.30404388  0.58310876  0.19605139    -0.38200
N823        N  0.30167064  0.71324825  0.19575166    -0.37600
N824        N  0.29804681  0.58155838  0.42177246    -0.37600
C825        C  0.83179634  0.16319679  0.14107496     0.31000
C826        C  0.83337268  0.16339203  0.98198436     0.31000
C827        C  0.84894016  0.14876456  0.10309882    -0.05200
C828        C  0.80135915  0.14706539  0.09984496    -0.06000
C829        C  0.84803432  0.19510683  0.10283697    -0.05800
C830        C  0.84920969  0.14857118  0.02259348    -0.05200
C831        C  0.80187137  0.14771236  0.01955632    -0.05900
C832        C  0.84784294  0.19522014  0.02183782    -0.05800
C833        C  0.86560378  0.13535886  0.99905531    -0.31200
N834        N  0.87532252  0.12734306  0.06273466     0.15300
C835        C  0.86593397  0.13613515  0.12649509    -0.31200
H836        H  0.87054885  0.13284892  0.18555404     0.17200
C837        C  0.77230406  0.13527457  0.99591149    -0.30200
N838        N  0.75434284  0.12571527  0.05939414     0.14000
C839        C  0.77179827  0.13306578  0.12326182    -0.30200
C840        C  0.86177099  0.22548383  0.99975205    -0.30500
N841        N  0.87211568  0.24350115  0.06400402     0.14500
H842        H  0.86470441  0.23397565  0.94122513     0.17100
C843        C  0.86425650  0.22525506  0.12704177    -0.30500
H844        H  0.86976706  0.23345097  0.18615113     0.17100
H845        H  0.76356680  0.12916094  0.18225163     0.17100
H846        H  0.86992839  0.13155786  0.93979531     0.17200
H847        H  0.76432144  0.13342840  0.93716385     0.17100
C848        C  0.82779703  0.16202921  0.48178346     0.31000
C849        C  0.83018751  0.16281794  0.64070896     0.31000
C850        C  0.84436629  0.14697918  0.51832737    -0.05200
C851        C  0.84479852  0.19399478  0.52042263    -0.06000
C852        C  0.79742131  0.14687553  0.52413828    -0.05800
C853        C  0.84482052  0.14691043  0.59869170    -0.05200
C854        C  0.84502884  0.19444065  0.60134953    -0.05900
C855        C  0.79841123  0.14770615  0.60466090    -0.05800
C856        C  0.86123938  0.13375662  0.62121356    -0.31200
N857        N  0.87124006  0.12627091  0.55684146     0.15300
C858        C  0.86181375  0.13484056  0.49368572    -0.31200
H859        H  0.86751104  0.13259708  0.43454482     0.17200
C860        C  0.85880653  0.22474526  0.62411198    -0.30200
N861        N  0.86862515  0.24245688  0.56003013     0.14000
C862        C  0.86066352  0.22399461  0.49668564    -0.30200
C863        C  0.76896775  0.13490968  0.63000629    -0.30500
N864        N  0.75049314  0.12530400  0.56738014     0.14500
H865        H  0.76138011  0.13213031  0.68947988     0.17100
C866        C  0.76765917  0.13272906  0.50247216    -0.30500
H867        H  0.75903947  0.12795006  0.44385740     0.17100
H868        H  0.86576548  0.23202564  0.43767187     0.17100
H869        H  0.86617760  0.13047768  0.67998646     0.17200
H870        H  0.86179873  0.23342929  0.68284995     0.17100
C871        C  0.66835628  0.33772996  0.01233078     0.31000
C872        C  0.67285906  0.33839493  0.85343630     0.31000
C873        C  0.65302868  0.35231639  0.96860193    -0.05200
C874        C  0.70062068  0.35418805  0.97867859    -0.06000
C875        C  0.65517884  0.30611885  0.97229859    -0.05800
C876        C  0.65487384  0.35245015  0.88824875    -0.05200
C877        C  0.70268099  0.35490166  0.89833074    -0.05900
C878        C  0.65642495  0.30635269  0.89132173    -0.05800
C879        C  0.63872052  0.36555401  0.86159907    -0.31200
N880        N  0.62812060  0.37389241  0.92358531     0.15300
C881        C  0.63652312  0.36575801  0.98911747    -0.31200
H882        H  0.63124699  0.36966592  0.04734024     0.17200
C883        C  0.73276372  0.36958257  0.87930050    -0.30200
N884        N  0.74926239  0.37713516  0.94553839     0.14000
C885        C  0.72975462  0.36744158  0.00646069    -0.30200
C886        C  0.64061079  0.27611961  0.86706855    -0.30500
N887        N  0.63197464  0.25795247  0.93027978     0.14500
H888        H  0.63530249  0.26778131  0.80805151     0.17100
C889        C  0.64098156  0.27588576  0.99462909    -0.30500
H890        H  0.63672944  0.26733554  0.05323931     0.17100
H891        H  0.73627407  0.36929653  0.06663110     0.17100
H892        H  0.63513826  0.36913727  0.80189008     0.17200
H893        H  0.74192772  0.37401829  0.82124843     0.17100
C894        C  0.66548382  0.33647509  0.35331312     0.31000
C895        C  0.66878612  0.33697481  0.51236899     0.31000
C896        C  0.65004571  0.35133759  0.39694425    -0.05200
C897        C  0.65140200  0.30465524  0.39213345    -0.06000
C898        C  0.69744764  0.35240637  0.38857331    -0.05800
C899        C  0.65136763  0.35146654  0.47733741    -0.05200
C900        C  0.65212613  0.30496731  0.47323719    -0.05900
C901        C  0.69877866  0.35289427  0.46889459    -0.05800
C902        C  0.63379854  0.36318379  0.50370912    -0.31200
N903        N  0.62262820  0.37075617  0.44189192     0.15300
C904        C  0.63215242  0.36313692  0.37645387    -0.31200
H905        H  0.62595440  0.36535218  0.31815235     0.17200
C906        C  0.63650015  0.27484085  0.49674988    -0.30200
N907        N  0.62816897  0.25647805  0.43318273     0.14000
C908        C  0.63750223  0.27426621  0.36915253    -0.30200
C909        C  0.72858823  0.36737997  0.49004352    -0.30500
N910        N  0.74551940  0.37551783  0.42491546     0.14500
H911        H  0.73739361  0.37154736  0.54845208     0.17100
C912        C  0.72692408  0.36612142  0.36252146    -0.30500
H913        H  0.73439000  0.36908969  0.30291948     0.17100
H914        H  0.63426642  0.26557477  0.31042129     0.17100
H915        H  0.62934954  0.36594411  0.56366719     0.17200
H916        H  0.63177546  0.26669976  0.55573565     0.17100
O917        O  0.54169627  0.48823435  0.05161664    -0.87300
C918        C  0.54886966  0.04761933  0.88101953     0.88700
Mg919      Mg  0.50835086  0.44028629  0.04757541     1.58100
O920        O  0.51558904  0.05431605  0.05301018    -0.87100
O921        O  0.55331311  0.02672646  0.12565900    -0.74400
C922        C  0.87925342  0.43571848  0.96848316     0.91600
O923        O  0.52725697  0.47583033  0.87037549    -0.74200
O924        O  0.89176978  0.41973393  0.96096756    -0.81700
Mg925      Mg  0.56686516  0.00683890  0.94566461     1.58000
C926        C  0.93747624  0.05942382  0.04443222     0.93700
O927        O  0.61106592  0.03953033  0.01139374    -0.80000
H928        H  0.51780502  0.06266804  0.16681627    -0.05300
C929        C  0.95629239  0.50164811  0.88322754     0.88600
O930        O  0.97645318  0.44727784  0.12633330    -0.74500
O931        O  0.55391155  0.04091539  0.94558756    -0.87200
O932        O  0.96472054  0.07388631  0.02099097    -0.80000
C933        C  0.56110210  0.12653229  0.96021126     0.93800
C934        C  0.62496148  0.06660025  0.03977975     0.93600
Mg935      Mg  0.93804742  0.49594366  0.05182092     1.58000
O936        O  0.89446486  0.46401475  0.98590969    -0.80000
O937        O  0.97743479  0.02831886  0.13427237    -0.74200
O938        O  0.57423261  0.11292159  0.98735965    -0.80100
O939        O  0.58125232  0.47157700  0.94251090    -0.81800
O940        O  0.93001056  0.39089010  0.02088585    -0.80100
C941        C  0.00437997  0.04936325  0.12252808     0.88100
O942        O  0.95177231  0.46243042  0.05421608    -0.87200
O943        O  0.96389324  0.01408662  0.95218741    -0.87300
O944        O  0.94854636  0.47376003  0.87303506    -0.74400
Mg945      Mg  0.56210322  0.06763406  0.05024357     1.58000
O946        O  0.53282660  0.11216913  0.94863792    -0.81800
H947        H  0.54716867  0.48644166  0.16562361    -0.05500
O948        O  0.98812417  0.44806656  0.94319503    -0.87000
H949        H  0.98594245  0.44209843  0.82838209    -0.05300
H950        H  0.94496544  0.45645083  0.16848196    -0.05500
C951        C  0.50021067  0.45477388  0.88148847     0.88100
C952        C  0.54662241  0.99919916  0.11417508     0.88600
C953        C  0.95693220  0.45528405  0.11809533     0.88700
H954        H  0.95670839  0.01504161  0.83870163    -0.05500
O955        O  0.52839082  0.05408660  0.87046017    -0.74500
Mg956      Mg  0.94131318  0.43430030  0.95233639     1.58000
H957        H  0.56150461  0.04683976  0.83161075    -0.05500
C958        C  0.56681878  0.44265587  0.95031868     0.93700
O959        O  0.97110806  0.38847782  0.04044986    -0.81700
C960        C  0.94252223  0.37560912  0.03866147     0.93700
O961        O  0.61135149  0.08137344  0.05107689    -0.81700
Mg962      Mg  0.99689100  0.06197514  0.95439108     1.58200
O963        O  0.54010096  0.42906200  0.97745456    -0.80000
O964        O  0.92342692  0.03070581  0.05510934    -0.81700
O965        O  0.98764151  0.04074656  0.45150657    -0.87300
C966        C  0.54398722  0.04678436  0.62579456     0.88700
Mg967      Mg  0.94040357  0.00768464  0.45158694     1.58100
O968        O  0.54966057  0.01127624  0.45527411    -0.87100
O969        O  0.52564765  0.05177669  0.37861354    -0.74400
C970        C  0.93030913  0.37456739  0.53979488     0.93800
O971        O  0.97309597  0.02697488  0.63177770    -0.74200
O972        O  0.91515810  0.38805945  0.54315593    -0.81700
Mg973      Mg  0.50581936  0.06705802  0.55813445     1.58000
C974        C  0.55343622  0.43126490  0.47375202     0.93700
O975        O  0.53967179  0.11173980  0.49414667    -0.80000
H976        H  0.55811458  0.01237601  0.34185051    -0.05300
C977        C  0.99632759  0.45243553  0.62458431     0.88600
O978        O  0.94729075  0.47479015  0.37565527    -0.74500
O979        O  0.53814094  0.05229665  0.56069406    -0.87200
O980        O  0.56770632  0.45912460  0.49640209    -0.80000
C981        C  0.62087345  0.05622671  0.54906791     0.93800
C982        C  0.56630129  0.12479369  0.46613404     0.93600
Mg983      Mg  0.99096054  0.43255811  0.45786672     1.58000
O984        O  0.95840559  0.38949666  0.52576150    -0.80000
O985        O  0.52482420  0.47233833  0.37868972    -0.74200
O986        O  0.60833682  0.07053419  0.52280704    -0.80100
O987        O  0.97129613  0.08285374  0.55623932    -0.81800
O988        O  0.88830612  0.42885921  0.48263284    -0.80100
C989        C  0.54571331  0.49973287  0.39031876     0.88100
O990        O  0.95893711  0.44781338  0.45079615    -0.87200
O991        O  0.50917811  0.46019439  0.55984763    -0.87300
O992        O  0.96901805  0.44525766  0.63285521    -0.74400
Mg993      Mg  0.56458500  0.05925451  0.45716166     1.58000
O994        O  0.60601119  0.02753095  0.56073865    -0.81800
H995        H  0.98683884  0.04598004  0.33699680    -0.05500
O996        O  0.94626384  0.48719694  0.55826852    -0.87000
H997        H  0.93964797  0.48561274  0.67275669    -0.05300
H998        H  0.95446735  0.44121329  0.33624789    -0.05500
C999        C  0.95210717  0.99956452  0.62038171     0.88100
C1000       C  0.49894862  0.04617287  0.38915766     0.88600
C1001       C  0.95336607  0.45372019  0.38582817     0.88700
H1002       H  0.50869585  0.45315178  0.67383945    -0.05500
O1003       O  0.54940620  0.02534429  0.63710793    -0.74500
Mg1004     Mg  0.93095688  0.43895848  0.55118412     1.58000
H1005       H  0.54339630  0.05984004  0.67480291    -0.05500
C1006       C  0.94296715  0.06823959  0.54516145     0.93700
O1007       O  0.88989232  0.47188225  0.45248576    -0.81700
C1008       C  0.87525518  0.44289261  0.45839035     0.93700
O1009       O  0.57978113  0.10985617  0.45503259    -0.81700
Mg1010     Mg  0.55656818  0.49288498  0.55995612     1.58200
O1011       O  0.92976729  0.04109211  0.51737061    -0.80000
O1012       O  0.52514748  0.41690471  0.46313625    -0.81700
C1013       C  0.58245454  0.15864876  0.44912361    -0.04300
C1014       C  0.56609219  0.17397627  0.43710025    -0.01400
C1015       C  0.58124837  0.20622941  0.43193898     0.03600
C1016       C  0.61280978  0.22353207  0.43436932    -0.04300
C1017       C  0.62934786  0.20854604  0.43979473    -0.01400
C1018       C  0.61450438  0.17642790  0.44787899     0.03600
C1019       C  0.53377036  0.15677785  0.42606198     0.38200
C1020       C  0.66189224  0.22649059  0.43712979     0.38200
C1021       C  0.63275328  0.16227410  0.45567581     0.36600
C1022       C  0.56442489  0.22189084  0.42488844     0.36600
N1023       N  0.64753131  0.15120281  0.46116964    -0.38200
N1024       N  0.55089848  0.23432259  0.41966774    -0.38200
N1025       N  0.68787337  0.24063752  0.43431278    -0.37600
N1026       N  0.50804090  0.14311421  0.41608771    -0.37600
C1027       C  0.77790215  0.39194690  0.42379437    -0.04300
C1028       C  0.79353156  0.37620505  0.43266781    -0.01400
C1029       C  0.82518680  0.39238882  0.44114712     0.03600
C1030       C  0.84183783  0.42508389  0.44017198    -0.04300
C1031       C  0.82559658  0.44050788  0.42572529    -0.01400
C1032       C  0.79390265  0.42394471  0.41945885     0.03600
C1033       C  0.77654801  0.34306728  0.43401149     0.38200
C1034       C  0.84082466  0.47345908  0.41735196     0.38200
C1035       C  0.77738647  0.43991194  0.41149159     0.36600
C1036       C  0.83997771  0.37474101  0.45058987     0.36600
N1037       N  0.76447562  0.45296206  0.40587739    -0.38200
N1038       N  0.85137068  0.36026806  0.45805854    -0.38200
N1039       N  0.85267779  0.49969136  0.40989719    -0.37600
N1040       N  0.76283507  0.31662643  0.43472054    -0.37600
C1041       C  0.57022124  0.41472579  0.46175694    -0.04300
C1042       C  0.56184641  0.38751671  0.50270730    -0.01400
C1043       C  0.57826369  0.37228459  0.49311176     0.03600
C1044       C  0.60411205  0.38478624  0.44550682    -0.04300
C1045       C  0.61196886  0.41157112  0.40297704    -0.01400
C1046       C  0.59487332  0.42619069  0.41035239     0.03600
C1047       C  0.53703951  0.37575162  0.55728661     0.38200
C1048       C  0.63795010  0.42453217  0.35237601     0.38200
C1049       C  0.60214231  0.45262801  0.36338329     0.36600
C1050       C  0.56785842  0.34303132  0.52986390     0.36600
N1051       N  0.60773901  0.47360919  0.32570775    -0.38200
N1052       N  0.55941516  0.31953768  0.55859007    -0.38200
N1053       N  0.65850699  0.43492432  0.31127060    -0.37600
N1054       N  0.51740097  0.36643576  0.60125184    -0.37600
C1055       C  0.57908827  0.16036681  0.94456975    -0.04300
C1056       C  0.56534426  0.17867331  0.94834783    -0.01400
C1057       C  0.58276611  0.21066048  0.93900816     0.03600
C1058       C  0.61407610  0.22507676  0.93005776    -0.04300
C1059       C  0.62780746  0.20727461  0.92312841    -0.01400
C1060       C  0.61040406  0.17505123  0.92812529     0.03600
C1061       C  0.53344323  0.16524104  0.96391179     0.38200
C1062       C  0.65999947  0.22233133  0.91110707     0.38200
C1063       C  0.62476913  0.15723844  0.91299789     0.36600
C1064       C  0.56847064  0.22896449  0.93693704     0.36600
N1065       N  0.63629416  0.14314912  0.89999381    -0.38200
N1066       N  0.55680900  0.24331810  0.93373066    -0.38200
N1067       N  0.68571692  0.23419210  0.90170034    -0.37600
N1068       N  0.50801545  0.15475668  0.97611789    -0.37600
C1069       C  0.84579661  0.42096009  0.96051609    -0.04300
C1070       C  0.82965355  0.43052562  0.00860746    -0.01400
C1071       C  0.79821830  0.41713303  0.00078528     0.03600
C1072       C  0.78182416  0.39200262  0.95020831    -0.04300
C1073       C  0.79779567  0.38163376  0.90432289    -0.01400
C1074       C  0.82956322  0.39672805  0.90722756     0.03600
C1075       C  0.84497776  0.45329038  0.06915041     0.38200
C1076       C  0.78162405  0.35470884  0.85574270     0.38200
C1077       C  0.84544971  0.38767078  0.85363619     0.36600
C1078       C  0.78324113  0.43040123  0.04309734     0.36600
N1079       N  0.85815495  0.38054798  0.81070969    -0.38200
N1080       N  0.77250809  0.44212595  0.07754629    -0.38200
N1081       N  0.76903405  0.33319480  0.81680107    -0.37600
N1082       N  0.85709170  0.47123486  0.11779312    -0.37600
C1083       C  0.61241387  0.39059589  0.92132626    -0.04300
C1084       C  0.58108214  0.37524993  0.93016796    -0.01400
C1085       C  0.56577906  0.39180034  0.93420521     0.03600
C1086       C  0.58207297  0.42444440  0.93192484    -0.04300
C1087       C  0.61369536  0.43941875  0.91769711    -0.01400
C1088       C  0.62858171  0.42249890  0.91386345     0.03600
C1089       C  0.56481302  0.34223275  0.93687403     0.38200
C1090       C  0.63162365  0.47225276  0.90720709     0.38200
C1091       C  0.66102392  0.43810913  0.90637754     0.36600
C1092       C  0.53321930  0.37465953  0.93923583     0.36600
N1093       N  0.68696073  0.45100412  0.90142540    -0.38200
N1094       N  0.50723684  0.36070615  0.94275664    -0.38200
N1095       N  0.64623419  0.49837407  0.89814548    -0.37600
N1096       N  0.55197749  0.31589513  0.94255037    -0.37600
C1097       C  0.67704447  0.34028776  0.76470863    -0.04300
C1098       C  0.68294709  0.36689560  0.72418710    -0.01400
C1099       C  0.68072555  0.36618109  0.64259846     0.03600
C1100       C  0.67366301  0.33905717  0.60094122    -0.04300
C1101       C  0.68030717  0.31863999  0.64016635    -0.01400
C1102       C  0.68170780  0.31908353  0.72198365     0.03600
C1103       C  0.69613278  0.39603957  0.76453710     0.38200
C1104       C  0.69076486  0.30100641  0.59756101     0.38200
C1105       C  0.69285860  0.30144092  0.76019584     0.36600
C1106       C  0.69004824  0.39455841  0.60210532     0.36600
N1107       N  0.70195334  0.28736483  0.78975621    -0.38200
N1108       N  0.69783312  0.41734430  0.57024291    -0.38200
N1109       N  0.69964404  0.28719403  0.56462142    -0.37600
N1110       N  0.70751668  0.41945856  0.79604720    -0.37600
C1111       C  0.66493932  0.33897777  0.10091091    -0.04300
C1112       C  0.63855325  0.31727382  0.14023197    -0.01400
C1113       C  0.63786834  0.31686845  0.22216262     0.03600
C1114       C  0.66346781  0.33842581  0.26462473    -0.04300
C1115       C  0.68298020  0.36591116  0.22486421    -0.01400
C1116       C  0.68355077  0.36618966  0.14308901     0.03600
C1117       C  0.61057468  0.29975707  0.09817108     0.38200
C1118       C  0.69874111  0.39473911  0.26669393     0.38200
C1119       C  0.69836562  0.39524637  0.10323306     0.36600
C1120       C  0.60933569  0.29835091  0.26117559     0.36600
N1121       N  0.70892602  0.41832940  0.07113485    -0.38200
N1122       N  0.58634228  0.28388717  0.29152785    -0.38200
N1123       N  0.71094762  0.41785427  0.29959990    -0.37600
N1124       N  0.58793802  0.28621366  0.06566154    -0.37600
C1125       C  0.88918726  0.11190994  0.55672005    -0.04300
C1126       C  0.87534618  0.08007171  0.56456159    -0.01400
C1127       C  0.89287674  0.06586738  0.56645442     0.03600
C1128       C  0.92475409  0.08358163  0.55960318    -0.04300
C1129       C  0.93848321  0.11603699  0.56032934    -0.01400
C1130       C  0.92066164  0.12987059  0.55562393     0.03600
C1131       C  0.84286691  0.06205306  0.57057446     0.38200
C1132       C  0.97063914  0.13562292  0.57055584     0.38200
C1133       C  0.93452247  0.16276721  0.54948282     0.36600
C1134       C  0.87796952  0.03325547  0.58054486     0.36600
N1135       N  0.94541812  0.18898604  0.54389339    -0.38200
N1136       N  0.86604276  0.00729941  0.59265814    -0.38200
N1137       N  0.99613178  0.15157459  0.58121299    -0.37600
N1138       N  0.81693735  0.04775448  0.57549597    -0.37600
C1139       C  0.88457159  0.27540379  0.55874715    -0.04300
C1140       C  0.87117634  0.29152149  0.58908415    -0.01400
C1141       C  0.88652591  0.32379450  0.58672689     0.03600
C1142       C  0.91493979  0.34038675  0.54926325    -0.04300
C1143       C  0.92787468  0.32362442  0.51707327    -0.01400
C1144       C  0.91313160  0.29155501  0.52419868     0.03600
C1145       C  0.84073991  0.27458917  0.61891702     0.38200
C1146       C  0.95547522  0.33855756  0.47220767     0.38200
C1147       C  0.92733409  0.27491303  0.49562675     0.36600
C1148       C  0.87266795  0.33948823  0.62320819     0.36600
N1149       N  0.93869937  0.26167996  0.47284587    -0.38200
N1150       N  0.86139627  0.35181534  0.65223623    -0.38200
N1151       N  0.97726018  0.34998743  0.43553189    -0.37600
N1152       N  0.81631668  0.26097829  0.64183886    -0.37600
C1153       C  0.71806829  0.10749039  0.56902063    -0.04300
C1154       C  0.70106162  0.12043130  0.59569447    -0.01400
C1155       C  0.66925859  0.10343294  0.59229678     0.03600
C1156       C  0.65420524  0.07323619  0.56175891    -0.04300
C1157       C  0.67152349  0.05984510  0.53911207    -0.01400
C1158       C  0.70319592  0.07695530  0.54277358     0.03600
C1159       C  0.71648938  0.15151067  0.62519201     0.38200
C1160       C  0.65709050  0.02867587  0.50987114     0.38200
C1161       C  0.72070031  0.06301743  0.52036133     0.36600
C1162       C  0.65212461  0.11678437  0.62241033     0.36600
N1163       N  0.73451283  0.05169866  0.50265429    -0.38200
N1164       N  0.63848065  0.12741652  0.64679187    -0.38200
N1165       N  0.64570575  0.00374791  0.48717281    -0.37600
N1166       N  0.72888381  0.17631482  0.64896559    -0.37600
C1167       C  0.92081066  0.07616275  0.05432387    -0.04300
C1168       C  0.93295116  0.10351539  0.09824752    -0.01400
C1169       C  0.91778404  0.12023818  0.10216097     0.03600
C1170       C  0.89038955  0.10978172  0.06212194    -0.04300
C1171       C  0.87768480  0.08176119  0.02106932    -0.01400
C1172       C  0.89278273  0.06511720  0.01685581     0.03600
C1173       C  0.96056192  0.11393804  0.14139550     0.38200
C1174       C  0.84855998  0.06954536  0.98439548     0.38200
C1175       C  0.87968084  0.03697669  0.97168284     0.36600
C1176       C  0.93062074  0.14846774  0.14639217     0.36600
N1177       N  0.86912190  0.01454086  0.93575526    -0.38200
N1178       N  0.94081317  0.17089650  0.18226638    -0.38200
N1179       N  0.82534179  0.05956522  0.95482306    -0.37600
N1180       N  0.98249383  0.12210257  0.17617930    -0.37600
C1181       C  0.92314015  0.34164529  0.05385003    -0.04300
C1182       C  0.93539668  0.32501657  0.08895371    -0.01400
C1183       C  0.91837851  0.29273349  0.09324312     0.03600
C1184       C  0.88877436  0.27652750  0.06456963    -0.04300
C1185       C  0.87554149  0.29276098  0.03570672    -0.01400
C1186       C  0.89235814  0.32496608  0.03016861     0.03600
C1187       C  0.96522432  0.34075852  0.12292933     0.38200
C1188       C  0.84409754  0.27603419  0.01328498     0.38200
C1189       C  0.87726567  0.34023094  0.99975646     0.36600
C1190       C  0.93152235  0.27592168  0.12582767     0.36600
N1191       N  0.86461554  0.35186335  0.97602841    -0.38200
N1192       N  0.94188730  0.26242696  0.15214167    -0.38200
N1193       N  0.81897901  0.26269059  0.99581745    -0.37600
N1194       N  0.98895418  0.35315182  0.15043533    -0.37600
C1195       C  0.72210541  0.11095240  0.05950937    -0.04300
C1196       C  0.70452985  0.07892854  0.06035992    -0.01400
C1197       C  0.67281435  0.06430726  0.05961643     0.03600
C1198       C  0.65830635  0.08184802  0.05559271    -0.04300
C1199       C  0.67653822  0.11432934  0.06169099    -0.01400
C1200       C  0.70820147  0.12857462  0.06208467     0.03600
C1201       C  0.71940831  0.06115628  0.06146746     0.38200
C1202       C  0.66337962  0.13360823  0.06950774     0.38200
C1203       C  0.72690468  0.16161104  0.06446277     0.36600
C1204       C  0.65548883  0.03130911  0.06706270     0.36600
N1205       N  0.74197835  0.18795803  0.06609344    -0.38200
N1206       N  0.64183747  0.00502044  0.07394372    -0.38200
N1207       N  0.65325221  0.14927634  0.07729209    -0.37600
N1208       N  0.73134531  0.04702713  0.06228254    -0.37600
C1209       C  0.83470235  0.16145877  0.89301721    -0.04300
C1210       C  0.86052816  0.18248831  0.85074560    -0.01400
C1211       C  0.85968360  0.18244115  0.76894902     0.03600
C1212       C  0.83288419  0.16151001  0.72916024    -0.04300
C1213       C  0.81300240  0.13462923  0.77036156    -0.01400
C1214       C  0.81387825  0.13459648  0.85199348     0.03600
C1215       C  0.88918408  0.20078008  0.88968131     0.38200
C1216       C  0.79490397  0.10579770  0.72954391     0.38200
C1217       C  0.79611924  0.10577173  0.89187264     0.36600
C1218       C  0.88766280  0.20033143  0.72687964     0.36600
N1219       N  0.78173548  0.08261623  0.92271511    -0.38200
N1220       N  0.91012549  0.21438970  0.69385103    -0.38200
N1221       N  0.78071208  0.08271544  0.69735384    -0.37600
N1222       N  0.91218738  0.21522183  0.92014241    -0.37600
C1223       C  0.82439653  0.16024304  0.39311791    -0.04300
C1224       C  0.81920812  0.13380647  0.35151407    -0.01400
C1225       C  0.82104016  0.13441112  0.26996825     0.03600
C1226       C  0.82757284  0.16136470  0.22956294    -0.04300
C1227       C  0.82063810  0.18160250  0.26995879    -0.01400
C1228       C  0.81918448  0.18111314  0.35166148     0.03600
C1229       C  0.80761280  0.10480093  0.39085525     0.38200
C1230       C  0.81027183  0.19933370  0.22846522     0.38200
C1231       C  0.80793457  0.19872116  0.39119504     0.36600
C1232       C  0.81175280  0.10596448  0.22850700     0.36600
N1233       N  0.79877270  0.21270710  0.42206139    -0.38200
N1234       N  0.80409889  0.08312223  0.19603467    -0.38200
N1235       N  0.80164693  0.21324012  0.19583904    -0.37600
N1236       N  0.79813799  0.08156199  0.42175276    -0.37600
C1237       C  0.83254488  0.66365713  0.14313282     0.31000
C1238       C  0.83399239  0.66414056  0.98404570     0.31000
C1239       C  0.84950582  0.64912824  0.10463862    -0.05200
C1240       C  0.80206900  0.64777790  0.10201206    -0.06000
C1241       C  0.84893735  0.69563376  0.10525452    -0.05800
C1242       C  0.84963652  0.64901963  0.02412008    -0.05200
C1243       C  0.80254087  0.64861811  0.02174526    -0.05900
C1244       C  0.84867698  0.69589977  0.02425252    -0.05800
C1245       C  0.86578617  0.63562366  0.99998946    -0.31200
N1246       N  0.87563068  0.62757960  0.06332223     0.15300
C1247       C  0.86652111  0.63644298  0.12745289    -0.31200
H1248       H  0.87137951  0.63320301  0.18631732     0.17200
C1249       C  0.77300908  0.63648131  0.99822213    -0.30200
N1250       N  0.75506514  0.62688388  0.06172294     0.14000
C1251       C  0.77251999  0.63391013  0.12551649    -0.30200
C1252       C  0.86269662  0.72620483  0.00248648    -0.30500
N1253       N  0.87318511  0.74405809  0.06692473     0.14500
H1254       H  0.86561399  0.73483010  0.94410625     0.17100
C1255       C  0.86532252  0.72572512  0.12977261    -0.30500
H1256       H  0.87095958  0.73382682  0.18892440     0.17100
H1257       H  0.76430131  0.62986534  0.18451970     0.17100
H1258       H  0.86989788  0.63174669  0.94059883     0.17200
H1259       H  0.76503541  0.63480712  0.93952761     0.17100
C1260       C  0.82826525  0.66226325  0.48376818     0.31000
C1261       C  0.83082945  0.66363475  0.64266931     0.31000
C1262       C  0.84482996  0.64729056  0.52077642    -0.05200
C1263       C  0.84538804  0.69435395  0.52164726    -0.06000
C1264       C  0.79792060  0.64731724  0.52631931    -0.05800
C1265       C  0.84538595  0.64752928  0.60115140    -0.05200
C1266       C  0.84571245  0.69513416  0.60255965    -0.05900
C1267       C  0.79900300  0.64845655  0.60680307    -0.05800
C1268       C  0.86187016  0.63448858  0.62411544    -0.31200
N1269       N  0.87180682  0.62677250  0.55999757     0.15300
C1270       C  0.86228990  0.63510099  0.49657568    -0.31200
H1271       H  0.86794022  0.63265879  0.43753645     0.17200
C1272       C  0.85948874  0.72555735  0.62438400    -0.30200
N1273       N  0.86921881  0.74297722  0.55975681     0.14000
C1274       C  0.86120089  0.72423210  0.49699757    -0.30200
C1275       C  0.76957178  0.63573728  0.63233092    -0.30500
N1276       N  0.75099738  0.62587253  0.56987641     0.14500
H1277       H  0.76206690  0.63314600  0.69185360     0.17100
C1278       C  0.76811585  0.63307301  0.50488161    -0.30500
H1279       H  0.75943574  0.62805010  0.44633526     0.17100
H1280       H  0.86615347  0.73198937  0.43774147     0.17100
H1281       H  0.86686413  0.63141147  0.68300568     0.17200
H1282       H  0.86247396  0.73451420  0.68283314     0.17100
C1283       C  0.66834498  0.83787723  0.01030394     0.31000
C1284       C  0.67304973  0.83838358  0.85143608     0.31000
C1285       C  0.65324019  0.85256769  0.96627022    -0.05200
C1286       C  0.70063801  0.85415262  0.97696836    -0.06000
C1287       C  0.65501193  0.80621568  0.97048122    -0.05800
C1288       C  0.65518415  0.85267058  0.88596564    -0.05200
C1289       C  0.70286632  0.85471336  0.89661033    -0.05900
C1290       C  0.65637917  0.80633717  0.88948966    -0.05800
C1291       C  0.63896810  0.86570687  0.85912998    -0.31200
N1292       N  0.62820217  0.87394566  0.92101208     0.15300
C1293       C  0.63659353  0.86585514  0.98660004    -0.31200
H1294       H  0.63109327  0.86956775  0.04476397     0.17200
C1295       C  0.73303895  0.86905610  0.87817396    -0.30200
N1296       N  0.74931006  0.87677299  0.94484269     0.14000
C1297       C  0.72967289  0.86740367  0.00537042    -0.30200
C1298       C  0.64042060  0.77603601  0.86557511    -0.30500
N1299       N  0.63148287  0.75796348  0.92904818     0.14500
H1300       H  0.63520058  0.76760117  0.80662344     0.17100
C1301       C  0.64052002  0.77602264  0.99315875    -0.30500
H1302       H  0.63612700  0.76758281  0.05187314     0.17100
H1303       H  0.73607186  0.86951281  0.06570043     0.17100
H1304       H  0.63532150  0.86915404  0.79936344     0.17200
H1305       H  0.74243305  0.87309945  0.82038587     0.17100
C1306       C  0.66563690  0.83696560  0.35106343     0.31000
C1307       C  0.66897913  0.83737465  0.51012319     0.31000
C1308       C  0.65019198  0.85177653  0.39483330    -0.05200
C1309       C  0.65158661  0.80513246  0.38973776    -0.06000
C1310       C  0.69761024  0.85293195  0.38625234    -0.05800
C1311       C  0.65152726  0.85185880  0.47523664    -0.05200
C1312       C  0.65232679  0.80539865  0.47082312    -0.05900
C1313       C  0.69897282  0.85338594  0.46658259    -0.05800
C1314       C  0.63386832  0.86344830  0.50171177    -0.31200
N1315       N  0.62262969  0.87097532  0.43995665     0.15300
C1316       C  0.63220775  0.86347167  0.37444902    -0.31200
H1317       H  0.62595403  0.86565857  0.31618637     0.17200
C1318       C  0.63662045  0.77526221  0.49420979    -0.30200
N1319       N  0.62823334  0.75693134  0.43058220     0.14000
C1320       C  0.63759625  0.77475293  0.36661558    -0.30200
C1321       C  0.72881095  0.86806243  0.48760856    -0.30500
N1322       N  0.74571513  0.87633817  0.42240212     0.14500
H1323       H  0.73765093  0.87225733  0.54598208     0.17100
C1324       C  0.72707980  0.86681854  0.36009451    -0.30500
H1325       H  0.73451925  0.86981767  0.30046660     0.17100
H1326       H  0.63432568  0.76609528  0.30784475     0.17100
H1327       H  0.62937701  0.86612011  0.56169540     0.17200
H1328       H  0.63188362  0.76708701  0.55316545     0.17100
O1329       O  0.54052587  0.98730657  0.04895966    -0.87300
C1330       C  0.54890286  0.54815979  0.88436433     0.88700
Mg1331     Mg  0.50704685  0.93931962  0.04357660     1.58100
O1332       O  0.51584040  0.55441871  0.05735062    -0.87100
O1333       O  0.55449190  0.52753455  0.12870946    -0.74400
C1334       C  0.87931132  0.93495162  0.97265385     0.91600
O1335       O  0.52675916  0.97513909  0.86742535    -0.74200
O1336       O  0.89217060  0.91929920  0.96475787    -0.81700
Mg1337     Mg  0.56757571  0.50772658  0.94758986     1.58000
C1338       C  0.93779113  0.55984712  0.03955911     0.93700
O1339       O  0.61198105  0.54062873  0.01258534    -0.80000
H1340       H  0.51806541  0.56253882  0.17129655    -0.05300
C1341       C  0.95627075  0.00167067  0.88779347     0.88600
O1342       O  0.97767238  0.94821164  0.13026282    -0.74500
O1343       O  0.55430684  0.54156054  0.94864208    -0.87200
O1344       O  0.96491566  0.57415249  0.01519733    -0.80000
C1345       C  0.56073203  0.62672970  0.96365959     0.93800
C1346       C  0.62571434  0.56766236  0.04129131     0.93600
Mg1347     Mg  0.93804586  0.99564727  0.05625191     1.58000
O1348       O  0.89434488  0.96323532  0.99057831    -0.80000
O1349       O  0.97730353  0.52839055  0.13012625    -0.74200
O1350       O  0.57411104  0.61329641  0.99035590    -0.80100
O1351       O  0.58038716  0.97059591  0.94222227    -0.81800
O1352       O  0.93121061  0.89103598  0.02324814    -0.80100
C1353       C  0.00421418  0.54943723  0.11821811     0.88100
O1354       O  0.95208817  0.96237746  0.05840812    -0.87200
O1355       O  0.96391133  0.51415578  0.94754369    -0.87300
O1356       O  0.94873947  0.97386233  0.87725323    -0.74400
Mg1357     Mg  0.56255462  0.56819278  0.05346612     1.58000
O1358       O  0.53238943  0.61226039  0.95324329    -0.81800
H1359       H  0.54528642  0.98546437  0.16330184    -0.05500
O1360       O  0.98888738  0.94859239  0.94694435    -0.87000
H1361       H  0.98643549  0.94252435  0.83215885    -0.05300
H1362       H  0.94590029  0.95684655  0.17291283    -0.05500
C1363       C  0.49959416  0.95424675  0.87790259     0.88100
C1364       C  0.54807651  0.50012001  0.11681385     0.88600
C1365       C  0.95773882  0.95566618  0.12226411     0.88700
H1366       H  0.95691667  0.51500373  0.83389155    -0.05500
O1367       O  0.52820541  0.55437239  0.87459324    -0.74500
Mg1368     Mg  0.94194390  0.93443502  0.95604026     1.58000
H1369       H  0.56141116  0.54750452  0.83451309    -0.05500
C1370       C  0.56570265  0.94161802  0.94836415     0.93700
O1371       O  0.97243523  0.88933877  0.04649541    -0.81700
C1372       C  0.94384108  0.87614322  0.04352909     0.93700
O1373       O  0.61193127  0.58223663  0.05325978    -0.81700
Mg1374     Mg  0.99706923  0.56197734  0.94953054     1.58200
O1375       O  0.53868168  0.92800909  0.97330390    -0.80000
O1376       O  0.92374633  0.53117648  0.05083741    -0.81700
O1377       O  0.98709544  0.54024661  0.45395983    -0.87300
C1378       C  0.54403524  0.54726325  0.62505078     0.88700
Mg1379     Mg  0.93991590  0.50713699  0.45512888     1.58100
O1380       O  0.55039924  0.51190098  0.45508245    -0.87100
O1381       O  0.52656425  0.55239633  0.37747060    -0.74400
C1382       C  0.93041302  0.87504140  0.53704737     0.93800
O1383       O  0.97312492  0.52660211  0.63446220    -0.74200
O1384       O  0.91525646  0.88853642  0.53997334    -0.81700
Mg1385     Mg  0.50603179  0.56751344  0.55611607     1.58000
C1386       C  0.55296275  0.93083112  0.47295898     0.93700
O1387       O  0.54002794  0.61222519  0.49249142    -0.80000
H1388       H  0.55914575  0.51305852  0.34182873    -0.05300
C1389       C  0.99624375  0.95286737  0.62308578     0.88600
O1390       O  0.94794155  0.97534162  0.37253519    -0.74500
O1391       O  0.53840209  0.55280454  0.55973747    -0.87200
O1392       O  0.56726563  0.95871699  0.49532957    -0.80000
C1393       C  0.62130551  0.55677869  0.55062653     0.93800
C1394       C  0.56675555  0.62534695  0.46510405     0.93600
Mg1395     Mg  0.99146497  0.93315250  0.45641300     1.58000
O1396       O  0.95855495  0.88997854  0.52353030    -0.80000
O1397       O  0.52397640  0.97163933  0.37922956    -0.74200
O1398       O  0.60888317  0.57114963  0.52394666    -0.80100
O1399       O  0.97114294  0.58243741  0.55911763    -0.81800
O1400       O  0.88849856  0.92948245  0.47905864    -0.80100
C1401       C  0.54483505  0.99906746  0.39054614     0.88100
O1402       O  0.95940355  0.94838879  0.44828442    -0.87200
O1403       O  0.50898607  0.95968910  0.56083965    -0.87300
O1404       O  0.96889503  0.94565960  0.63053358    -0.74400
Mg1405     Mg  0.56527712  0.55988855  0.45703506     1.58000
O1406       O  0.60635071  0.52806067  0.56209433    -0.81800
H1407       H  0.98581516  0.54544023  0.33957921    -0.05500
O1408       O  0.94637934  0.98766748  0.55514770    -0.87000
H1409       H  0.93945277  0.98597734  0.66950319    -0.05300
H1410       H  0.95521368  0.94175732  0.33371563    -0.05500
C1411       C  0.95215213  0.49915793  0.62342411     0.88100
C1412       C  0.49979795  0.54672394  0.38715014     0.88600
C1413       C  0.95399390  0.95427719  0.38310803     0.88700
H1414       H  0.50898808  0.95278099  0.67477761    -0.05500
O1415       O  0.54942584  0.52582436  0.63672277    -0.74500
Mg1416     Mg  0.93106778  0.93945105  0.54806630     1.58000
H1417       H  0.54328520  0.56029535  0.67390935    -0.05500
C1418       C  0.94277404  0.56786292  0.54874566     0.93700
O1419       O  0.89030594  0.97254005  0.44802379    -0.81700
C1420       C  0.87554930  0.94356718  0.45438903     0.93700
O1421       O  0.58037303  0.61049706  0.45478655    -0.81700
Mg1422     Mg  0.55630078  0.99239421  0.55974554     1.58200
O1423       O  0.92941621  0.54062637  0.52143888    -0.80000
O1424       O  0.52463185  0.91636792  0.46326650    -0.81700
C1425       C  0.58282644  0.65917032  0.44773755    -0.04300
C1426       C  0.56637830  0.67433560  0.43456146    -0.01400
C1427       C  0.58141844  0.70657746  0.42910835     0.03600
C1428       C  0.61297144  0.72399189  0.43176514    -0.04300
C1429       C  0.62960478  0.70912938  0.43783204    -0.01400
C1430       C  0.61486787  0.67706849  0.44701690     0.03600
C1431       C  0.53411665  0.65697489  0.42251437     0.38200
C1432       C  0.66213378  0.72713753  0.43441188     0.38200
C1433       C  0.63321213  0.66311399  0.45676591     0.36600
C1434       C  0.56448587  0.72210321  0.42149935     0.36600
N1435       N  0.64806719  0.65220315  0.46397275    -0.38200
N1436       N  0.55086902  0.73442552  0.41587319    -0.38200
N1437       N  0.68809710  0.74133803  0.43078392    -0.37600
N1438       N  0.50844565  0.64317707  0.41164485    -0.37600
C1439       C  0.77810472  0.89277646  0.42103873    -0.04300
C1440       C  0.79372810  0.87700413  0.42928142    -0.01400
C1441       C  0.82540209  0.89314637  0.43726009     0.03600
C1442       C  0.84209598  0.92583797  0.43640535    -0.04300
C1443       C  0.82585524  0.94130954  0.42252290    -0.01400
C1444       C  0.79413377  0.92477956  0.41668708     0.03600
C1445       C  0.77671351  0.84386659  0.43040891     0.38200
C1446       C  0.84111067  0.97426821  0.41432728     0.38200
C1447       C  0.77762825  0.94077089  0.40897480     0.36600
C1448       C  0.84018014  0.87545992  0.44604290     0.36600
N1449       N  0.76470690  0.95381657  0.40349881    -0.38200
N1450       N  0.85157374  0.86096627  0.45301735    -0.38200
N1451       N  0.85296242  0.00050626  0.40699306    -0.37600
N1452       N  0.76295563  0.81742628  0.43092596    -0.37600
C1453       C  0.56977103  0.91437836  0.46036499    -0.04300
C1454       C  0.56165283  0.88727868  0.50150441    -0.01400
C1455       C  0.57814799  0.87216120  0.49149705     0.03600
C1456       C  0.60393722  0.88479173  0.44367361    -0.04300
C1457       C  0.61157254  0.91150490  0.40107139    -0.01400
C1458       C  0.59425868  0.92587960  0.40844240     0.03600
C1459       C  0.53708779  0.87556106  0.55681911     0.38200
C1460       C  0.63761654  0.92471625  0.35067593     0.38200
C1461       C  0.60112509  0.95208938  0.36098693     0.36600
C1462       C  0.56790514  0.84292085  0.52814885     0.36600
N1463       N  0.60636891  0.97286483  0.32288088    -0.38200
N1464       N  0.55957635  0.81943409  0.55679510    -0.38200
N1465       N  0.65825815  0.93533715  0.30985317    -0.37600
N1466       N  0.51766139  0.86631490  0.60140966    -0.37600
C1467       C  0.57854922  0.66046456  0.94680600    -0.04300
C1468       C  0.56492187  0.67884485  0.95181652    -0.01400
C1469       C  0.58226711  0.71076188  0.94088656     0.03600
C1470       C  0.61347257  0.72507443  0.92947340    -0.04300
C1471       C  0.62704050  0.70714031  0.92156081    -0.01400
C1472       C  0.60960175  0.67494873  0.92754213     0.03600
C1473       C  0.53324500  0.66554695  0.97020837     0.38200
C1474       C  0.65912972  0.72201509  0.90805019     0.38200
C1475       C  0.62355488  0.65690556  0.91019990     0.36600
C1476       C  0.56795241  0.72904846  0.93957396     0.36600
N1477       N  0.63467839  0.64258076  0.89531437    -0.38200
N1478       N  0.55618014  0.74330555  0.93688871    -0.38200
N1479       N  0.68477990  0.73370429  0.89766353    -0.37600
N1480       N  0.50799558  0.65515118  0.98470242    -0.37600
C1481       C  0.84572458  0.91989876  0.96404566    -0.04300
C1482       C  0.82952698  0.93077173  0.00759186    -0.01400
C1483       C  0.79819114  0.91761210  0.99780288     0.03600
C1484       C  0.78180520  0.89143884  0.95060299    -0.04300
C1485       C  0.79759356  0.87955934  0.91005209    -0.01400
C1486       C  0.82933950  0.89420955  0.91454281     0.03600
C1487       C  0.84453065  0.95453540  0.06607200     0.38200
C1488       C  0.78110342  0.85155064  0.86547420     0.38200
C1489       C  0.84489372  0.88281517  0.86700715     0.36600
C1490       C  0.78326172  0.93216254  0.03423039     0.36600
N1491       N  0.85718302  0.87361029  0.82901103    -0.38200
N1492       N  0.77255328  0.94496041  0.06357891    -0.38200
N1493       N  0.76815985  0.82912214  0.82997335    -0.37600
N1494       N  0.85629383  0.97322833  0.11327678    -0.37600
C1495       C  0.61198326  0.89014567  0.91882045    -0.04300
C1496       C  0.58092536  0.87464579  0.93289679    -0.01400
C1497       C  0.56529001  0.89085208  0.93774034     0.03600
C1498       C  0.58099140  0.92338033  0.93038233    -0.04300
C1499       C  0.61224373  0.93840044  0.91129009    -0.01400
C1500       C  0.62749361  0.92184408  0.90726573     0.03600
C1501       C  0.56530227  0.84184271  0.94422724     0.38200
C1502       C  0.62945676  0.97095737  0.89591071     0.38200
C1503       C  0.65977795  0.93780091  0.89604595     0.36600
C1504       C  0.53301637  0.87339862  0.94971299     0.36600
N1505       N  0.68561215  0.95111868  0.88829643    -0.38200
N1506       N  0.50726102  0.85911687  0.95886043    -0.38200
N1507       N  0.64348982  0.99686542  0.88320741    -0.37600
N1508       N  0.55294046  0.81569049  0.95358015    -0.37600
C1509       C  0.67724021  0.84032189  0.76264095    -0.04300
C1510       C  0.68324420  0.86700451  0.72230658    -0.01400
C1511       C  0.68089501  0.86637735  0.64073236     0.03600
C1512       C  0.67382499  0.83932056  0.59875428    -0.04300
C1513       C  0.68037543  0.81878610  0.63776421    -0.01400
C1514       C  0.68169104  0.81905021  0.71962093     0.03600
C1515       C  0.69677267  0.89612957  0.76277965     0.38200
C1516       C  0.69084865  0.80121860  0.59492350     0.38200
C1517       C  0.69262917  0.80118982  0.75760195     0.36600
C1518       C  0.69005908  0.89477927  0.60053389     0.36600
N1519       N  0.70161074  0.78696959  0.78690552    -0.38200
N1520       N  0.69770122  0.91757942  0.56888685    -0.38200
N1521       N  0.69973288  0.78745778  0.56175894    -0.37600
N1522       N  0.70851796  0.91952555  0.79438648    -0.37600
C1523       C  0.66490793  0.83926898  0.09881523    -0.04300
C1524       C  0.63849159  0.81771514  0.13823338    -0.01400
C1525       C  0.63786637  0.81737057  0.22015362     0.03600
C1526       C  0.66354461  0.83889544  0.26242434    -0.04300
C1527       C  0.68305135  0.86633897  0.22252311    -0.01400
C1528       C  0.68356418  0.86652541  0.14076313     0.03600
C1529       C  0.61044618  0.80048692  0.09633769     0.38200
C1530       C  0.69883566  0.89521293  0.26414498     0.38200
C1531       C  0.69830988  0.89553142  0.10069995     0.36600
C1532       C  0.60934338  0.79899892  0.25933715     0.36600
N1533       N  0.70877876  0.91857396  0.06845696    -0.38200
N1534       N  0.58635895  0.78466507  0.28982631    -0.38200
N1535       N  0.71108356  0.91837560  0.29683194    -0.37600
N1536       N  0.58773527  0.78723362  0.06405661    -0.37600
C1537       C  0.88957114  0.61220018  0.56026732    -0.04300
C1538       C  0.87550139  0.58032480  0.56767330    -0.01400
C1539       C  0.89282280  0.56588795  0.56971150     0.03600
C1540       C  0.92472677  0.58339670  0.56334348    -0.04300
C1541       C  0.93867003  0.61587989  0.56462348    -0.01400
C1542       C  0.92106405  0.62995381  0.55974868     0.03600
C1543       C  0.84299601  0.56250412  0.57302728     0.38200
C1544       C  0.97081417  0.63524076  0.57566879     0.38200
C1545       C  0.93517471  0.66287978  0.55380636     0.36600
C1546       C  0.87765957  0.53324522  0.58350569     0.36600
N1547       N  0.94628447  0.68912458  0.54832365    -0.38200
N1548       N  0.86552552  0.50726649  0.59544248    -0.38200
N1549       N  0.99629510  0.65099020  0.58694158    -0.37600
N1550       N  0.81704424  0.54836564  0.57739595    -0.37600
C1551       C  0.88494291  0.77590760  0.55734775    -0.04300
C1552       C  0.87123480  0.79194978  0.58608752    -0.01400
C1553       C  0.88645827  0.82421641  0.58331044     0.03600
C1554       C  0.91502247  0.84085227  0.54655042    -0.04300
C1555       C  0.92814387  0.82412583  0.51523440    -0.01400
C1556       C  0.91355884  0.79208944  0.52310986     0.03600
C1557       C  0.84060250  0.77490744  0.61453510     0.38200
C1558       C  0.95579396  0.83905393  0.47055486     0.38200
C1559       C  0.92796925  0.77551347  0.49557022     0.36600
C1560       C  0.87236491  0.83984956  0.61890351     0.36600
N1561       N  0.93951155  0.76234535  0.47359925    -0.38200
N1562       N  0.86093774  0.85212439  0.64740039    -0.38200
N1563       N  0.97761922  0.85049193  0.43403392    -0.37600
N1564       N  0.81600760  0.76117101  0.63618614    -0.37600
C1565       C  0.71854407  0.60799207  0.57175842    -0.04300
C1566       C  0.70148091  0.62082392  0.59886830    -0.01400
C1567       C  0.66966558  0.60385318  0.59500369     0.03600
C1568       C  0.65463309  0.57372982  0.56398600    -0.04300
C1569       C  0.67198608  0.56035664  0.54150448    -0.01400
C1570       C  0.70367074  0.57748747  0.54520892     0.03600
C1571       C  0.71684949  0.65174957  0.62939570     0.38200
C1572       C  0.65756987  0.52915818  0.51250575     0.38200
C1573       C  0.72118904  0.56359589  0.52250952     0.36600
C1574       C  0.65248200  0.61714452  0.62513981     0.36600
N1575       N  0.73503142  0.55233996  0.50452112    -0.38200
N1576       N  0.63879356  0.62772423  0.64954078    -0.38200
N1577       N  0.64619368  0.50419337  0.49008970    -0.37600
N1578       N  0.72918684  0.67641336  0.65410606    -0.37600
C1579       C  0.92126277  0.57668453  0.05053075    -0.04300
C1580       C  0.93402742  0.60445522  0.09290769    -0.01400
C1581       C  0.91869001  0.62096000  0.09884665     0.03600
C1582       C  0.89064712  0.61000458  0.06191273    -0.04300
C1583       C  0.87735808  0.58163412  0.02249544    -0.01400
C1584       C  0.89254454  0.56512209  0.01644169     0.03600
C1585       C  0.96254152  0.61562792  0.13220768     0.38200
C1586       C  0.84752562  0.56894135  0.98969965     0.38200
C1587       C  0.87879718  0.53660934  0.97274602     0.36600
C1588       C  0.93189601  0.64939609  0.14225996     0.36600
N1589       N  0.86773344  0.51387965  0.93799595    -0.38200
N1590       N  0.94233961  0.67196503  0.17759587    -0.38200
N1591       N  0.82370154  0.55857207  0.96345201    -0.37600
N1592       N  0.98524964  0.62445666  0.16374906    -0.37600
C1593       C  0.92458598  0.84218765  0.05956233    -0.04300
C1594       C  0.93752296  0.82511040  0.08815258    -0.01400
C1595       C  0.92032993  0.79282623  0.09175056     0.03600
C1596       C  0.89010165  0.77703915  0.06795548    -0.04300
C1597       C  0.87637609  0.79360011  0.04542324    -0.01400
C1598       C  0.89311046  0.82586969  0.04254131     0.03600
C1599       C  0.96824734  0.84029910  0.11625966     0.38200
C1600       C  0.84458093  0.77710765  0.02655040     0.38200
C1601       C  0.87703896  0.84159909  0.02391193     0.36600
C1602       C  0.93384615  0.77551528  0.11855216     0.36600
N1603       N  0.86361311  0.85361669  0.01016585    -0.38200
N1604       N  0.94448409  0.76159360  0.14026056    -0.38200
N1605       N  0.81921471  0.76394461  0.01160590    -0.37600
N1606       N  0.99268735  0.85221501  0.13918727    -0.37600
C1607       C  0.72283225  0.61217031  0.06180616    -0.04300
C1608       C  0.70522331  0.58017597  0.06497196    -0.01400
C1609       C  0.67350955  0.56558543  0.06400233     0.03600
C1610       C  0.65905845  0.58308122  0.05701814    -0.04300
C1611       C  0.67730165  0.61560310  0.06050349    -0.01400
C1612       C  0.70896033  0.62983166  0.06160381     0.03600
C1613       C  0.72008331  0.56241753  0.06848053     0.38200
C1614       C  0.66413523  0.63495274  0.06479251     0.38200
C1615       C  0.72767948  0.66287353  0.06215009     0.36600
C1616       C  0.65610136  0.53274847  0.07468712     0.36600
N1617       N  0.74274981  0.68922505  0.06244400    -0.38200
N1618       N  0.64239940  0.50660606  0.08429983    -0.38200
N1619       N  0.65399676  0.65069679  0.06986601    -0.37600
N1620       N  0.73207993  0.54836943  0.07112399    -0.37600
C1621       C  0.83526534  0.66233930  0.89507253    -0.04300
C1622       C  0.86111196  0.68336429  0.85286334    -0.01400
C1623       C  0.86025055  0.68345827  0.77106509     0.03600
C1624       C  0.83349570  0.66246549  0.73117927    -0.04300
C1625       C  0.81362007  0.63556326  0.77237394    -0.01400
C1626       C  0.81441119  0.63552245  0.85399071     0.03600
C1627       C  0.88981571  0.70138080  0.89181493     0.38200
C1628       C  0.79559503  0.60670462  0.73159304     0.38200
C1629       C  0.79649580  0.60671277  0.89384647     0.36600
C1630       C  0.88820938  0.70156763  0.72910269     0.36600
N1631       N  0.78199001  0.58358255  0.92470406    -0.38200
N1632       N  0.91068542  0.71583134  0.69627321    -0.38200
N1633       N  0.78146072  0.58360228  0.69944652    -0.37600
N1634       N  0.91284642  0.71554936  0.92233540    -0.37600
C1635       C  0.82484011  0.66037457  0.39513106    -0.04300
C1636       C  0.81996319  0.63407105  0.35347790    -0.01400
C1637       C  0.82190427  0.63476937  0.27193396     0.03600
C1638       C  0.82831977  0.66171781  0.23162208    -0.04300
C1639       C  0.82118282  0.68181047  0.27202605    -0.01400
C1640       C  0.81947802  0.68113543  0.35367237     0.03600
C1641       C  0.80849739  0.60505952  0.39270058     0.38200
C1642       C  0.81097262  0.69966808  0.23048988     0.38200
C1643       C  0.80794582  0.69850679  0.39315941     0.36600
C1644       C  0.81280244  0.60638029  0.23040395     0.36600
N1645       N  0.79856373  0.71228817  0.42406040    -0.38200
N1646       N  0.80531066  0.58356806  0.19794626    -0.38200
N1647       N  0.80245016  0.71365124  0.19780295    -0.37600
N1648       N  0.79913663  0.58180981  0.42347542    -0.37600
loop_ 
_geom_bond_atom_site_label_1 
_geom_bond_atom_site_label_2 
_geom_bond_distance 
_geom_bond_site_symmetry_2 
_ccdc_geom_bond_type 
C1            C3   1.545       .  S
C1            C5   1.549       .  S
C1            C4   1.531       .  S
C1          C402   1.540       .  S
C2            C6   1.536   1_556  S
C2            C8   1.549   1_556  S
C2            C7   1.543   1_556  S
C2          C385   1.541       .  S
C3           C11   1.385       .  A
C3            C6   1.391       .  A
C4           C15   1.377       .  A
C4            C7   1.387       .  A
C5           C19   1.382       .  A
C5            C8   1.399       .  A
C6            C9   1.376       .  A
C7           C13   1.384   1_554  A
C8           C16   1.382       .  A
C9           N10   1.358       .  A
C9           H22   1.083   1_554  S
N10          C11   1.360       .  A
N10         C346   1.447       .  S
C11          H12   1.082       .  S
C13          N14   1.356   1_556  A
C13          H23   1.082       .  S
N14          C15   1.352       .  A
N14         C371   1.437       .  S
C15          H21   1.082       .  S
C16          N17   1.357       .  A
C16          H18   1.082   1_554  S
N17          C19   1.357       .  A
N17         C360   1.443       .  S
C19          H20   1.082       .  S
C24          C26   1.545       .  S
C24          C28   1.537       .  S
C24          C27   1.546       .  S
C24         C399   1.538       .  S
C25          C29   1.533       .  S
C25          C31   1.547       .  S
C25          C30   1.548       .  S
C25         C388   1.540       .  S
C26          C34   1.386       .  A
C26          C29   1.388       .  A
C27          C38   1.379       .  A
C27          C30   1.398       .  A
C28          C42   1.378       .  A
C28          C31   1.391       .  A
C29          C32   1.377       .  A
C30          C36   1.382       .  A
C31          C39   1.386       .  A
C32          N33   1.353       .  A
C32          H45   1.082       .  S
N33          C34   1.358       .  A
N33         C301   1.439       .  S
C34          H35   1.082       .  S
C36          N37   1.357       .  A
C36          H46   1.082       .  S
N37          C38   1.355       .  A
N37         C315   1.442       .  S
C38          H44   1.082       .  S
C39          N40   1.359       .  A
C39          H41   1.082       .  S
N40          C42   1.358       .  A
N40         C329   1.445       .  S
C42          H43   1.083       .  S
C47          C49   1.531   1_554  S
C47          C51   1.547   1_554  S
C47          C50   1.547   1_554  S
C47         C287   1.543       .  S
C48          C52   1.546       .  S
C48          C54   1.553       .  S
C48          C53   1.539       .  S
C48         C273   1.545       .  S
C49          C57   1.376       .  A
C49          C52   1.390       .  A
C50          C61   1.385   1_556  A
C50          C53   1.391       .  A
C51          C65   1.381       .  A
C51          C54   1.400       .  A
C52          C55   1.386       .  A
C53          C59   1.380       .  A
C54          C62   1.386       .  A
C55          N56   1.358       .  A
C55          H68   1.082       .  S
N56          C57   1.354       .  A
N56         C259   1.440       .  S
C57          H58   1.083   1_556  S
C59          N60   1.361       .  A
C59          H69   1.082       .  S
N60          C61   1.362   1_556  A
N60         C248   1.452       .  S
C61          H67   1.082       .  S
C62          N63   1.357       .  A
C62          H64   1.082       .  S
N63          C65   1.355       .  A
N63         C234   1.442       .  S
C65          H66   1.082   1_556  S
C70          C72   1.536       .  S
C70          C74   1.547       .  S
C70          C73   1.552       .  S
C70         C290   1.543       .  S
C71          C75   1.548       .  S
C71          C77   1.531       .  S
C71          C76   1.551       .  S
C71         C276   1.546       .  S
C72          C80   1.378       .  A
C72          C75   1.391       .  A
C73          C84   1.386       .  A
C73          C76   1.401       .  A
C74          C88   1.387       .  A
C74          C77   1.389       .  A
C75          C78   1.384       .  A
C76          C82   1.382       .  A
C77          C85   1.376       .  A
C78          N79   1.363       .  A
C78          H91   1.083       .  S
N79          C80   1.358       .  A
N79         C220   1.451       .  S
C80          H81   1.082       .  S
C82          N83   1.356       .  A
C82          H92   1.082       .  S
N83          C84   1.357       .  A
N83         C192   1.443       .  S
C84          H90   1.082       .  S
C85          N86   1.354       .  A
C85          H87   1.083       .  S
N86          C88   1.359       .  A
N86         C203   1.441       .  S
C88          H89   1.082       .  S
O93         Mg95   2.158       .  S
O93        Mg513   2.158   1_554  S
O93         C540   1.237       .  S
C94         H133   1.083       .  S
C94         O107   1.236       .  S
C94         O131   1.269       .  A
Mg95        O948   2.153   1_454  S
Mg95        O139   2.319   1_554  S
Mg95        O959   2.293   1_455  S
Mg95        O930   2.305   1_455  S
O96        Mg121   2.143       .  S
O96        Mg962   2.160   1_454  S
O96         C941   1.236       .  S
O97         C128   1.271       .  A
O97        Mg121   2.300       .  S
C98         O100   1.272       .  A
C98         O112   1.274       .  A
C98         C245   1.506       .  S
O99         C127   1.271   1_455  A
O99        Mg513   2.304       .  S
O100       Mg132   2.281       .  S
Mg101       O107   2.145       .  S
Mg101       O505   2.158   1_546  S
Mg101       O103   2.326   1_556  S
Mg101       O511   2.303   1_545  S
Mg101       O527   2.274   1_545  S
C102        O140   1.271       .  A
C102        O108   1.278       .  A
C102        C343   1.491       .  S
O103        C110   1.279       .  A
H104        C941   1.080       .  S
C105        H542   1.084       .  S
C105        O531   1.236       .  S
C105        O120   1.271       .  A
O106        C129   1.271       .  A
O106       Mg919   2.303       .  S
O107       Mg121   2.160   1_556  S
O108       Mg138   2.328   1_554  S
C109        O122   1.273       .  A
C109        O114   1.280       .  A
C109        C231   1.508       .  S
C110        O137   1.273       .  A
C110        C374   1.511       .  S
Mg111       O118   2.147       .  S
Mg111       O531   2.151   1_554  S
Mg111       O112   2.304   1_554  S
Mg111       O525   2.295       .  S
Mg111       O552   2.256       .  S
O113        C117   1.269       .  A
O113       Mg523   2.291   1_545  S
O114       Mg121   2.332   1_556  S
O115        C134   1.273       .  A
O115       Mg513   2.273       .  S
O116        C136   1.274       .  A
O116       Mg132   2.304   1_554  S
C117        H928   1.080       .  S
C117        O920   1.236       .  S
O118       Mg132   2.150   1_554  S
O118        C129   1.236       .  S
O119       Mg138   2.147       .  S
O119       Mg523   2.153   1_546  S
O119        C517   1.237       .  S
O120       Mg132   2.304       .  S
Mg121       O137   2.270       .  S
O122       Mg962   2.265   1_455  S
H123        C540   1.083       .  S
O124       Mg132   2.154       .  S
O124       Mg919   2.159   1_556  S
O124        C951   1.237       .  S
H125        C951   1.079       .  S
H126        C129   1.083       .  S
C127        H949   1.079       .  S
C127        O948   1.237       .  S
C128        H535   1.083   1_545  S
C128        O505   1.237   1_545  S
H130        C517   1.084       .  S
O131       Mg962   2.293   1_455  S
C134        O139   1.277       .  A
C134        C262   1.518       .  S
O135        C136   1.275       .  A
O135       Mg919   2.293       .  S
C136        C357   1.518       .  S
Mg138       O920   2.160   1_556  S
Mg138       O946   2.264       .  S
Mg138       O955   2.293       .  S
O140       Mg523   2.252   1_545  S
O141       Mg143   2.146       .  S
O141       Mg973   2.160       .  S
O141       C1000   1.236       .  S
C142        H181   1.080       .  S
C142        O155   1.236       .  S
C142        O179   1.269       .  A
Mg143       O584   2.163   1_545  S
Mg143       O187   2.319       .  S
Mg143       O595   2.277   1_545  S
Mg143       O566   2.303   1_545  S
O144       Mg169   2.150       .  S
O144       Mg598   2.159   1_545  S
O144        C577   1.237   1_545  S
O145        C176   1.270   1_455  A
O145       Mg169   2.295       .  S
C146        O148   1.274       .  A
C146        O160   1.273       .  A
C146        C318   1.508       .  S
O147        C175   1.272   1_545  A
O147       Mg973   2.306       .  S
O148       Mg180   2.284       .  S
Mg149       O155   2.147       .  S
Mg149       O965   2.162   1_455  S
Mg149       O151   2.329       .  S
Mg149       O971   2.305   1_455  S
Mg149       O987   2.286   1_455  S
C150        O188   1.271       .  A
C150        O156   1.277       .  A
C150        C217   1.491       .  S
O151        C158   1.279       .  A
H152        C577   1.081   1_545  S
C153       H1002   1.084       .  S
C153        O991   1.236       .  S
C153        O168   1.271       .  A
O154        C177   1.270       .  A
O154       Mg555   2.303       .  S
O155       Mg169   2.163       .  S
O156       Mg186   2.326       .  S
C157        O170   1.274       .  A
C157        O162   1.279       .  A
C157        C332   1.500       .  S
C158        O185   1.274       .  A
C158        C189   1.513       .  S
Mg159       O166   2.156       .  S
Mg159       O991   2.146       .  S
Mg159       O160   2.299       .  S
Mg159       O985   2.299       .  S
Mg159      O1012   2.271       .  S
O161        C165   1.270       .  A
O161       Mg983   2.298   1_455  S
O162       Mg169   2.331       .  S
O163        C182   1.274       .  A
O163       Mg973   2.285       .  S
O164        C184   1.276       .  A
O164       Mg180   2.321       .  S
C165        H564   1.081       .  S
C165        O556   1.237       .  S
O166       Mg180   2.151       .  S
O166        C177   1.236       .  S
O167       Mg186   2.147       .  S
O167       Mg983   2.145   1_455  S
O167        C977   1.236   1_455  S
O168       Mg180   2.309       .  S
Mg169       O185   2.275       .  S
O170       Mg598   2.267   1_545  S
H171       C1000   1.084       .  S
O172       Mg180   2.159       .  S
O172       Mg555   2.164       .  S
O172        C587   1.237       .  S
H173        C587   1.082       .  S
H174        C177   1.079       .  S
C175        H585   1.082       .  S
C175        O584   1.237       .  S
C176        H995   1.084       .  S
C176        O965   1.236       .  S
H178        C977   1.084   1_455  S
O179       Mg598   2.294   1_545  S
C182        O187   1.278       .  A
C182        C304   1.512       .  S
O183        C184   1.273       .  A
O183       Mg555   2.279       .  S
C184        C206   1.520       .  S
Mg186       O556   2.159       .  S
Mg186       O582   2.264       .  S
Mg186       O591   2.293       .  S
O188       Mg983   2.268   1_455  S
C189        C190   1.424       .  A
C189        C194   1.427       .  A
C190        C191   1.416       .  A
C190        C195   1.450       .  S
C191        C192   1.405       .  A
C191        C198   1.449       .  S
C192        C193   1.404       .  A
C193        C194   1.414       .  A
C193        C196   1.449       .  S
C194        C197   1.451       .  S
C195        N202   1.157       .  T
C196        N201   1.157       .  T
C197        N199   1.158       .  T
C198        N200   1.157       .  T
C203        C204   1.402       .  A
C203        C208   1.403       .  A
C204        C205   1.415       .  A
C204        C209   1.450       .  S
C205        C206   1.431       .  A
C205        C212   1.451       .  S
C206        C207   1.430       .  A
C207        C208   1.414       .  A
C207        C210   1.451       .  S
C208        C211   1.450       .  S
C209        N216   1.157       .  T
C210        N215   1.158       .  T
C211        N213   1.157       .  T
C212        N214   1.157       .  T
C217        C218   1.415       .  A
C217        C222   1.411       .  A
C218        C219   1.413       .  A
C218        C223   1.451       .  S
C219        C220   1.413       .  A
C219        C226   1.449       .  S
C220        C221   1.417       .  A
C221        C222   1.414       .  A
C221        C224   1.448       .  S
C222        C225   1.451       .  S
C223        N230   1.157       .  T
C224        N229   1.157       .  T
C225        N227   1.157       .  T
C226        N228   1.157       .  T
C231        C232   1.425       .  A
C231        C236   1.422       .  A
C232        C233   1.413       .  A
C232        C237   1.452       .  S
C233        C234   1.404       .  A
C233        C240   1.449       .  S
C234        C235   1.406       .  A
C235        C236   1.415       .  A
C235        C238   1.448       .  S
C236        C239   1.451       .  S
C237        N244   1.158       .  T
C238        N243   1.157       .  T
C239        N241   1.158       .  T
C240        N242   1.157       .  T
C245        C246   1.421   1_556  A
C245        C250   1.420       .  A
C246        C247   1.412   1_554  A
C246        C251   1.454       .  S
C247        C248   1.412       .  A
C247        C254   1.447   1_556  S
C248        C249   1.414       .  A
C249        C250   1.417       .  A
C249        C252   1.448       .  S
C250        C253   1.451       .  S
C251        N258   1.158       .  T
C252        N257   1.157       .  T
C253        N255   1.157       .  T
C254        N256   1.156       .  T
C259        C260   1.403       .  A
C259        C264   1.403       .  A
C260        C261   1.415       .  A
C260        C265   1.450       .  S
C261        C262   1.430       .  A
C261        C268   1.451       .  S
C262        C263   1.429       .  A
C263        C264   1.413       .  A
C263        C266   1.452       .  S
C264        C267   1.449       .  S
C265        N272   1.157       .  T
C266        N271   1.158       .  T
C267        N269   1.157       .  T
C268        N270   1.157       .  T
C273        C274   1.416       .  A
C273        C278   1.415       .  A
C274        C275   1.413       .  A
C274        C279   1.449       .  S
C275        C276   1.421       .  A
C275        C282   1.452       .  S
C276        C277   1.423       .  A
C277        C278   1.415       .  A
C277        C280   1.450       .  S
C278        C281   1.450       .  S
C279        N286   1.156       .  T
C280        N285   1.157       .  T
C281        N283   1.157       .  T
C282        N284   1.158       .  T
C287        C288   1.418       .  A
C287        C292   1.416       .  A
C288        C289   1.415       .  A
C288        C293   1.449       .  S
C289        C290   1.418       .  A
C289        C296   1.450       .  S
C290        C291   1.421       .  A
C291        C292   1.412       .  A
C291        C294   1.451       .  S
C292        C295   1.450       .  S
C293        N300   1.156       .  T
C294        N299   1.157       .  T
C295        N297   1.157       .  T
C296        N298   1.157       .  T
C301        C302   1.405       .  A
C301        C306   1.403       .  A
C302        C303   1.414       .  A
C302        C307   1.450       .  S
C303        C304   1.424       .  A
C303        C310   1.451       .  S
C304        C305   1.426       .  A
C305        C306   1.414       .  A
C305        C308   1.449       .  S
C306        C309   1.450       .  S
C307        N314   1.157       .  T
C308        N313   1.158       .  T
C309        N311   1.157       .  T
C310        N312   1.158       .  T
C315        C316   1.407       .  A
C315        C320   1.405       .  A
C316        C317   1.414       .  A
C316        C321   1.450       .  S
C317        C318   1.424       .  A
C317        C324   1.451       .  S
C318        C319   1.428       .  A
C319        C320   1.411       .  A
C319        C322   1.452       .  S
C320        C323   1.451       .  S
C321        N328   1.157       .  T
C322        N327   1.157       .  T
C323        N325   1.157       .  T
C324        N326   1.157       .  T
C329        C330   1.409       .  A
C329        C334   1.408       .  A
C330        C331   1.417       .  A
C330        C335   1.448       .  S
C331        C332   1.419       .  A
C331        C338   1.450       .  S
C332        C333   1.420       .  A
C333        C334   1.411       .  A
C333        C336   1.451       .  S
C334        C337   1.450       .  S
C335        N342   1.157       .  T
C336        N341   1.157       .  T
C337        N339   1.157       .  T
C338        N340   1.158       .  T
C343        C344   1.414       .  A
C343        C348   1.417       .  A
C344        C345   1.416       .  A
C344        C349   1.450       .  S
C345        C346   1.413       .  A
C345        C352   1.448       .  S
C346        C347   1.412       .  A
C347        C348   1.410       .  A
C347        C350   1.450   1_554  S
C348        C351   1.453   1_554  S
C349        N356   1.157       .  T
C350        N355   1.157       .  T
C351        N353   1.158       .  T
C352        N354   1.157       .  T
C357        C358   1.427       .  A
C357        C362   1.431       .  A
C358        C359   1.416       .  A
C358        C363   1.451       .  S
C359        C360   1.406       .  A
C359        C366   1.450       .  S
C360        C361   1.403       .  A
C361        C362   1.414       .  A
C361        C364   1.451       .  S
C362        C365   1.450       .  S
C363        N370   1.158       .  T
C364        N369   1.157       .  T
C365        N367   1.157       .  T
C366        N368   1.157       .  T
C371        C372   1.404       .  A
C371        C376   1.401       .  A
C372        C373   1.413       .  A
C372        C377   1.450       .  S
C373        C374   1.425       .  A
C373        C380   1.451       .  S
C374        C375   1.428       .  A
C375        C376   1.412       .  A
C375        C378   1.450       .  S
C376        C379   1.450       .  S
C377        N384   1.157       .  T
C378        N383   1.157       .  T
C379        N381   1.157       .  T
C380        N382   1.158       .  T
C385        C386   1.418       .  A
C385        C390   1.421       .  A
C386        C387   1.414       .  A
C386        C391   1.452       .  S
C387        C388   1.422       .  A
C387        C394   1.452       .  S
C388        C389   1.419       .  A
C389        C390   1.410       .  A
C389        C392   1.454       .  S
C390        C393   1.452       .  S
C391        N398   1.158       .  T
C392        N397   1.158       .  T
C393        N395   1.157       .  T
C394        N396   1.158       .  T
C399        C400   1.416       .  A
C399        C404   1.417       .  A
C400        C401   1.411       .  A
C400        C405   1.452       .  S
C401        C402   1.422       .  A
C401        C408   1.452       .  S
C402        C403   1.423       .  A
C403        C404   1.412       .  A
C403        C406   1.453       .  S
C404        C407   1.453       .  S
C405        N412   1.157       .  T
C406        N411   1.158       .  T
C407        N409   1.158       .  T
C408        N410   1.158       .  T
C413        C415   1.545       .  S
C413        C417   1.549       .  S
C413        C416   1.530       .  S
C413        C814   1.540       .  S
C414        C418   1.536   1_556  S
C414        C420   1.550   1_556  S
C414        C419   1.544   1_556  S
C414        C797   1.542       .  S
C415        C423   1.385       .  A
C415        C418   1.390       .  A
C416        C427   1.376       .  A
C416        C419   1.387       .  A
C417        C431   1.382       .  A
C417        C420   1.399       .  A
C418        C421   1.376   1_554  A
C419        C425   1.385   1_554  A
C420        C428   1.382   1_554  A
C421        N422   1.359   1_556  A
C421        H434   1.083       .  S
N422        C423   1.360       .  A
N422        C758   1.448       .  S
C423        H424   1.082       .  S
C425        N426   1.356   1_556  A
C425        H435   1.082       .  S
N426        C427   1.352       .  A
N426        C783   1.437       .  S
C427        H433   1.082       .  S
C428        N429   1.358   1_556  A
C428        H430   1.082       .  S
N429        C431   1.357       .  A
N429        C772   1.445       .  S
C431        H432   1.082       .  S
C436        C438   1.545       .  S
C436        C440   1.536       .  S
C436        C439   1.546       .  S
C436        C811   1.539       .  S
C437        C441   1.532       .  S
C437        C443   1.546       .  S
C437        C442   1.547       .  S
C437        C800   1.540       .  S
C438        C446   1.386       .  A
C438        C441   1.388       .  A
C439        C450   1.379       .  A
C439        C442   1.398       .  A
C440        C454   1.377       .  A
C440        C443   1.391       .  A
C441        C444   1.376       .  A
C442        C448   1.382       .  A
C443        C451   1.385       .  A
C444        N445   1.353       .  A
C444        H457   1.082       .  S
N445        C446   1.358       .  A
N445        C713   1.439       .  S
C446        H447   1.082       .  S
C448        N449   1.357       .  A
C448        H458   1.082       .  S
N449        C450   1.356       .  A
N449        C727   1.442       .  S
C450        H456   1.082       .  S
C451        N452   1.359       .  A
C451        H453   1.082       .  S
N452        C454   1.357       .  A
N452        C741   1.443       .  S
C454        H455   1.083       .  S
C459        C461   1.533   1_554  S
C459        C463   1.547   1_554  S
C459        C462   1.548   1_554  S
C459        C699   1.543       .  S
C460        C464   1.544       .  S
C460        C466   1.552       .  S
C460        C465   1.537       .  S
C460        C685   1.543       .  S
C461        C469   1.376       .  A
C461        C464   1.390       .  A
C462        C473   1.385   1_556  A
C462        C465   1.391       .  A
C463        C477   1.381       .  A
C463        C466   1.400       .  A
C464        C467   1.385       .  A
C465        C471   1.378       .  A
C466        C474   1.385       .  A
C467        N468   1.358       .  A
C467        H480   1.082       .  S
N468        C469   1.354       .  A
N468        C671   1.439       .  S
C469        H470   1.083   1_556  S
C471        N472   1.361       .  A
C471        H481   1.082       .  S
N472        C473   1.363   1_556  A
N472        C660   1.454       .  S
C473        H479   1.082       .  S
C474        N475   1.356       .  A
C474        H476   1.082       .  S
N475        C477   1.355       .  A
N475        C646   1.441       .  S
C477        H478   1.082   1_556  S
C482        C484   1.536       .  S
C482        C486   1.547       .  S
C482        C485   1.553       .  S
C482        C702   1.543       .  S
C483        C487   1.548       .  S
C483        C489   1.531       .  S
C483        C488   1.551       .  S
C483        C688   1.545       .  S
C484        C492   1.379       .  A
C484        C487   1.390       .  A
C485        C496   1.386       .  A
C485        C488   1.401       .  A
C486        C500   1.387       .  A
C486        C489   1.389       .  A
C487        C490   1.385       .  A
C488        C494   1.383       .  A
C489        C497   1.376       .  A
C490        N491   1.363       .  A
C490        H503   1.083       .  S
N491        C492   1.359       .  A
N491        C632   1.452       .  S
C492        H493   1.082       .  S
C494        N495   1.356       .  A
C494        H504   1.082       .  S
N495        C496   1.357       .  A
N495        C604   1.443       .  S
C496        H502   1.082       .  S
C497        N498   1.353       .  A
C497        H499   1.083       .  S
N498        C500   1.359       .  A
N498        C615   1.440       .  S
C500        H501   1.082       .  S
O505       Mg507   2.155       .  S
C506        H545   1.083       .  S
C506        O519   1.235       .  S
C506        O543   1.269       .  A
Mg507      O1360   2.159   1_454  S
Mg507       O551   2.320   1_554  S
Mg507      O1371   2.293   1_455  S
Mg507      O1342   2.303   1_455  S
O508      Mg1374   2.160   1_454  S
O508       Mg533   2.138       .  S
O508       C1353   1.236       .  S
O509        C540   1.271       .  A
O509       Mg533   2.302       .  S
C510        O512   1.272       .  A
C510        O524   1.273       .  A
C510        C657   1.499       .  S
O511        C539   1.271       .  A
O512       Mg544   2.277       .  S
Mg513       O519   2.145       .  S
Mg513       O515   2.324   1_556  S
C514        O552   1.271       .  A
C514        O520   1.278       .  A
C514        C755   1.491       .  S
O515        C522   1.279       .  A
H516       C1353   1.080       .  S
C517        O532   1.271   1_545  A
O518        C541   1.271       .  A
O518      Mg1331   2.305       .  S
O519       Mg533   2.160   1_556  S
O520       Mg550   2.328   1_554  S
C521        O534   1.273       .  A
C521        O526   1.280       .  A
C521        C643   1.508       .  S
C522        O549   1.273       .  A
C522        C786   1.511       .  S
Mg523       O530   2.147       .  S
Mg523       O524   2.297   1_554  S
O525        C529   1.269       .  A
O526       Mg533   2.331   1_556  S
O527        C546   1.274       .  A
O528        C548   1.274       .  A
O528       Mg544   2.310   1_554  S
C529       H1340   1.080       .  S
C529       O1332   1.236       .  S
O530       Mg544   2.146   1_554  S
O530        C541   1.236       .  S
O531       Mg550   2.148       .  S
O532       Mg544   2.305       .  S
Mg533       O549   2.268       .  S
O534      Mg1374   2.265   1_455  S
O536      Mg1331   2.153   1_556  S
O536       Mg544   2.152       .  S
O536       C1363   1.237       .  S
H537       C1363   1.079       .  S
H538        C541   1.083       .  S
C539       H1361   1.079   1_455  S
C539       O1360   1.237   1_455  S
O543      Mg1374   2.293   1_455  S
C546        O551   1.277       .  A
C546        C674   1.517       .  S
O547        C548   1.275       .  A
O547      Mg1331   2.292       .  S
C548        C769   1.516       .  S
Mg550      O1332   2.160   1_556  S
Mg550      O1358   2.265       .  S
Mg550      O1367   2.293       .  S
O553       Mg555   2.147       .  S
O553      Mg1385   2.162       .  S
O553       C1412   1.236       .  S
C554        H593   1.080       .  S
C554        O567   1.236       .  S
C554        O591   1.269       .  A
Mg555       O599   2.315       .  S
O556       Mg581   2.149       .  S
O557        C588   1.269   1_455  A
O557       Mg581   2.294       .  S
C558        O560   1.274       .  A
C558        O572   1.273       .  A
C558        C730   1.508       .  S
O559        C587   1.272       .  A
O559      Mg1385   2.305       .  S
O560       Mg592   2.284       .  S
Mg561      O1377   2.160   1_455  S
Mg561       O567   2.146       .  S
Mg561      O1383   2.306   1_455  S
Mg561      O1399   2.285   1_455  S
Mg561       O563   2.330       .  S
C562        O600   1.272       .  A
C562        O568   1.277       .  A
C562        C629   1.492       .  S
O563        C570   1.279       .  A
C565       H1414   1.084       .  S
C565       O1403   1.236       .  S
C565        O580   1.271       .  A
O566        C589   1.271       .  A
O567       Mg581   2.163       .  S
O568       Mg598   2.328       .  S
C569        O582   1.273       .  A
C569        O574   1.278       .  A
C569        C744   1.499       .  S
C570        O597   1.274       .  A
C570        C601   1.513       .  S
Mg571       O578   2.153       .  S
Mg571      O1403   2.145       .  S
Mg571       O572   2.298       .  S
Mg571      O1397   2.298       .  S
Mg571      O1424   2.268       .  S
O573        C577   1.270       .  A
O573      Mg1395   2.298   1_455  S
O574       Mg581   2.326       .  S
O575        C594   1.274       .  A
O575      Mg1385   2.286       .  S
O576        C596   1.276       .  A
O576       Mg592   2.318       .  S
O578       Mg592   2.150       .  S
O578        C589   1.236       .  S
O579      Mg1395   2.146   1_455  S
O579       Mg598   2.149       .  S
O579       C1389   1.236   1_455  S
O580       Mg592   2.308       .  S
Mg581       O597   2.274       .  S
H583       C1412   1.084       .  S
O584       Mg592   2.160       .  S
H586        C589   1.079       .  S
C588       H1407   1.084       .  S
C588       O1377   1.236       .  S
H590       C1389   1.083   1_455  S
C594        O599   1.278       .  A
C594        C716   1.511       .  S
O595        C596   1.273       .  A
C596        C618   1.520       .  S
O600      Mg1395   2.271   1_455  S
C601        C602   1.424       .  A
C601        C606   1.427       .  A
C602        C603   1.415       .  A
C602        C607   1.450       .  S
C603        C604   1.405       .  A
C603        C610   1.449       .  S
C604        C605   1.404       .  A
C605        C606   1.415       .  A
C605        C608   1.449       .  S
C606        C609   1.451       .  S
C607        N614   1.157       .  T
C608        N613   1.157       .  T
C609        N611   1.158       .  T
C610        N612   1.157       .  T
C615        C616   1.402       .  A
C615        C620   1.403       .  A
C616        C617   1.416       .  A
C616        C621   1.450       .  S
C617        C618   1.431       .  A
C617        C624   1.451       .  S
C618        C619   1.430       .  A
C619        C620   1.414       .  A
C619        C622   1.451       .  S
C620        C623   1.450       .  S
C621        N628   1.157       .  T
C622        N627   1.158       .  T
C623        N625   1.157       .  T
C624        N626   1.157       .  T
C629        C630   1.415       .  A
C629        C634   1.411       .  A
C630        C631   1.414       .  A
C630        C635   1.451       .  S
C631        C632   1.413       .  A
C631        C638   1.450       .  S
C632        C633   1.417       .  A
C633        C634   1.415       .  A
C633        C636   1.448       .  S
C634        C637   1.451       .  S
C635        N642   1.157       .  T
C636        N641   1.157       .  T
C637        N639   1.157       .  T
C638        N640   1.157       .  T
C643        C644   1.426       .  A
C643        C648   1.423       .  A
C644        C645   1.412       .  A
C644        C649   1.451       .  S
C645        C646   1.404       .  A
C645        C652   1.449       .  S
C646        C647   1.405       .  A
C647        C648   1.415       .  A
C647        C650   1.448       .  S
C648        C651   1.451       .  S
C649        N656   1.158       .  T
C650        N655   1.157       .  T
C651        N653   1.158       .  T
C652        N654   1.157       .  T
C657        C658   1.418   1_556  A
C657        C662   1.415       .  A
C658        C659   1.412       .  A
C658        C663   1.454       .  S
C659        C660   1.414   1_554  A
C659        C666   1.447       .  S
C660        C661   1.417       .  A
C661        C662   1.415       .  A
C661        C664   1.448       .  S
C662        C665   1.450       .  S
C663        N670   1.158       .  T
C664        N669   1.157       .  T
C665        N667   1.157       .  T
C666        N668   1.156       .  T
C671        C672   1.402       .  A
C671        C676   1.403       .  A
C672        C673   1.415       .  A
C672        C677   1.450       .  S
C673        C674   1.429       .  A
C673        C680   1.451       .  S
C674        C675   1.429       .  A
C675        C676   1.413       .  A
C675        C678   1.452       .  S
C676        C679   1.450       .  S
C677        N684   1.157       .  T
C678        N683   1.158       .  T
C679        N681   1.157       .  T
C680        N682   1.158       .  T
C685        C686   1.416       .  A
C685        C690   1.416       .  A
C686        C687   1.413       .  A
C686        C691   1.450       .  S
C687        C688   1.421       .  A
C687        C694   1.452       .  S
C688        C689   1.423       .  A
C689        C690   1.415       .  A
C689        C692   1.451       .  S
C690        C693   1.450       .  S
C691        N698   1.156       .  T
C692        N697   1.157       .  T
C693        N695   1.157       .  T
C694        N696   1.158       .  T
C699        C700   1.419       .  A
C699        C704   1.416       .  A
C700        C701   1.415       .  A
C700        C705   1.449       .  S
C701        C702   1.418       .  A
C701        C708   1.450       .  S
C702        C703   1.421       .  A
C703        C704   1.412       .  A
C703        C706   1.451       .  S
C704        C707   1.450       .  S
C705        N712   1.157       .  T
C706        N711   1.157       .  T
C707        N709   1.157       .  T
C708        N710   1.157       .  T
C713        C714   1.405       .  A
C713        C718   1.403       .  A
C714        C715   1.413       .  A
C714        C719   1.450       .  S
C715        C716   1.424       .  A
C715        C722   1.451       .  S
C716        C717   1.425       .  A
C717        C718   1.413       .  A
C717        C720   1.449       .  S
C718        C721   1.450       .  S
C719        N726   1.157       .  T
C720        N725   1.157       .  T
C721        N723   1.157       .  T
C722        N724   1.158       .  T
C727        C728   1.407       .  A
C727        C732   1.405       .  A
C728        C729   1.413       .  A
C728        C733   1.450       .  S
C729        C730   1.423       .  A
C729        C736   1.450       .  S
C730        C731   1.428       .  A
C731        C732   1.411       .  A
C731        C734   1.452       .  S
C732        C735   1.451       .  S
C733        N740   1.157       .  T
C734        N739   1.157       .  T
C735        N737   1.157       .  T
C736        N738   1.157       .  T
C741        C742   1.409       .  A
C741        C746   1.407       .  A
C742        C743   1.416       .  A
C742        C747   1.448       .  S
C743        C744   1.419       .  A
C743        C750   1.451       .  S
C744        C745   1.420       .  A
C745        C746   1.411       .  A
C745        C748   1.451       .  S
C746        C749   1.450       .  S
C747        N754   1.157       .  T
C748        N753   1.157       .  T
C749        N751   1.157       .  T
C750        N752   1.158       .  T
C755        C756   1.414       .  A
C755        C760   1.416       .  A
C756        C757   1.416       .  A
C756        C761   1.450       .  S
C757        C758   1.414       .  A
C757        C764   1.448       .  S
C758        C759   1.413       .  A
C759        C760   1.410       .  A
C759        C762   1.450   1_554  S
C760        C763   1.453   1_554  S
C761        N768   1.157       .  T
C762        N767   1.157       .  T
C763        N765   1.158       .  T
C764        N766   1.157       .  T
C769        C770   1.425       .  A
C769        C774   1.429       .  A
C770        C771   1.416       .  A
C770        C775   1.451       .  S
C771        C772   1.408       .  A
C771        C778   1.450       .  S
C772        C773   1.405       .  A
C773        C774   1.414       .  A
C773        C776   1.451       .  S
C774        C777   1.450   1_554  S
C775        N782   1.158       .  T
C776        N781   1.157   1_554  T
C777        N779   1.157       .  T
C778        N780   1.157       .  T
C783        C784   1.404       .  A
C783        C788   1.401       .  A
C784        C785   1.413       .  A
C784        C789   1.450       .  S
C785        C786   1.425       .  A
C785        C792   1.451       .  S
C786        C787   1.428       .  A
C787        C788   1.412       .  A
C787        C790   1.450       .  S
C788        C791   1.450       .  S
C789        N796   1.157       .  T
C790        N795   1.157       .  T
C791        N793   1.157       .  T
C792        N794   1.158       .  T
C797        C798   1.418       .  A
C797        C802   1.421       .  A
C798        C799   1.414       .  A
C798        C803   1.452       .  S
C799        C800   1.421       .  A
C799        C806   1.452       .  S
C800        C801   1.419       .  A
C801        C802   1.411       .  A
C801        C804   1.454       .  S
C802        C805   1.452       .  S
C803        N810   1.158       .  T
C804        N809   1.158       .  T
C805        N807   1.157       .  T
C806        N808   1.158       .  T
C811        C812   1.417       .  A
C811        C816   1.418       .  A
C812        C813   1.411       .  A
C812        C817   1.452       .  S
C813        C814   1.421       .  A
C813        C820   1.452       .  S
C814        C815   1.423       .  A
C815        C816   1.412       .  A
C815        C818   1.453       .  S
C816        C819   1.452       .  S
C817        N824   1.157       .  T
C818        N823   1.158       .  T
C819        N821   1.158       .  T
C820        N822   1.158       .  T
C825        C827   1.545       .  S
C825        C829   1.549       .  S
C825        C828   1.530       .  S
C825       C1226   1.540       .  S
C826        C830   1.537   1_556  S
C826        C832   1.550   1_556  S
C826        C831   1.544   1_556  S
C826       C1209   1.542       .  S
C827        C835   1.385       .  A
C827        C830   1.390       .  A
C828        C839   1.377       .  A
C828        C831   1.387       .  A
C829        C843   1.382       .  A
C829        C832   1.399       .  A
C830        C833   1.376   1_554  A
C831        C837   1.385   1_554  A
C832        C840   1.382   1_554  A
C833        N834   1.359   1_556  A
C833        H846   1.083       .  S
N834        C835   1.360       .  A
N834       C1170   1.448       .  S
C835        H836   1.082       .  S
C837        N838   1.356   1_556  A
C837        H847   1.082       .  S
N838        C839   1.352       .  A
N838       C1195   1.437       .  S
C839        H845   1.082       .  S
C840        N841   1.358   1_556  A
C840        H842   1.082       .  S
N841        C843   1.357       .  A
N841       C1184   1.445       .  S
C843        H844   1.082       .  S
C848        C850   1.545       .  S
C848        C852   1.536       .  S
C848        C851   1.546       .  S
C848       C1223   1.539       .  S
C849        C853   1.532       .  S
C849        C855   1.546       .  S
C849        C854   1.547       .  S
C849       C1212   1.540       .  S
C850        C858   1.386       .  A
C850        C853   1.388       .  A
C851        C862   1.379       .  A
C851        C854   1.398       .  A
C852        C866   1.377       .  A
C852        C855   1.391       .  A
C853        C856   1.376       .  A
C854        C860   1.382       .  A
C855        C863   1.385       .  A
C856        N857   1.353       .  A
C856        H869   1.082       .  S
N857        C858   1.358       .  A
N857       C1125   1.439       .  S
C858        H859   1.082       .  S
C860        N861   1.357       .  A
C860        H870   1.082       .  S
N861        C862   1.356       .  A
N861       C1139   1.442       .  S
C862        H868   1.082       .  S
C863        N864   1.359       .  A
C863        H865   1.082       .  S
N864        C866   1.357       .  A
N864       C1153   1.443       .  S
C866        H867   1.083       .  S
C871        C873   1.533   1_554  S
C871        C875   1.547   1_554  S
C871        C874   1.548   1_554  S
C871       C1111   1.543       .  S
C872        C876   1.544       .  S
C872        C878   1.552       .  S
C872        C877   1.537       .  S
C872       C1097   1.543       .  S
C873        C881   1.376       .  A
C873        C876   1.390       .  A
C874        C885   1.385   1_556  A
C874        C877   1.391       .  A
C875        C889   1.382       .  A
C875        C878   1.400       .  A
C876        C879   1.385       .  A
C877        C883   1.378       .  A
C878        C886   1.385       .  A
C879        N880   1.358       .  A
C879        H892   1.082       .  S
N880        C881   1.354       .  A
N880       C1083   1.439       .  S
C881        H882   1.083   1_556  S
C883        N884   1.361       .  A
C883        H893   1.082       .  S
N884        C885   1.363   1_556  A
N884       C1072   1.454       .  S
C885        H891   1.082       .  S
C886        N887   1.356       .  A
C886        H888   1.082       .  S
N887        C889   1.355       .  A
N887       C1058   1.441       .  S
C889        H890   1.082   1_556  S
C894        C896   1.536       .  S
C894        C898   1.547       .  S
C894        C897   1.553       .  S
C894       C1114   1.543       .  S
C895        C899   1.548       .  S
C895        C901   1.531       .  S
C895        C900   1.551       .  S
C895       C1100   1.545       .  S
C896        C904   1.379       .  A
C896        C899   1.390       .  A
C897        C908   1.386       .  A
C897        C900   1.401       .  A
C898        C912   1.388       .  A
C898        C901   1.389       .  A
C899        C902   1.385       .  A
C900        C906   1.383       .  A
C901        C909   1.376       .  A
C902        N903   1.363       .  A
C902        H915   1.083       .  S
N903        C904   1.359       .  A
N903       C1044   1.452       .  S
C904        H905   1.082       .  S
C906        N907   1.356       .  A
C906        H916   1.082       .  S
N907        C908   1.357       .  A
N907       C1016   1.443       .  S
C908        H914   1.082       .  S
C909        N910   1.353       .  A
C909        H911   1.083       .  S
N910        C912   1.359       .  A
N910       C1027   1.440       .  S
C912        H913   1.082       .  S
O917       Mg919   2.155       .  S
O917      Mg1337   2.159   1_554  S
O917       C1364   1.237       .  S
C918        H957   1.083       .  S
C918        O931   1.235       .  S
C918        O955   1.269       .  A
Mg919       O963   2.320   1_554  S
O920       Mg945   2.138       .  S
O921        C952   1.271   1_545  A
O921       Mg945   2.302       .  S
C922        O924   1.272       .  A
C922        O936   1.273       .  A
C922       C1069   1.500       .  S
O923        C951   1.271       .  A
O923      Mg1337   2.303       .  S
O924       Mg956   2.276       .  S
Mg925      O1329   2.158   1_546  S
Mg925       O931   2.145       .  S
Mg925      O1335   2.304   1_545  S
Mg925      O1351   2.273   1_545  S
Mg925       O927   2.324   1_556  S
C926        O964   1.271       .  A
C926        O932   1.278       .  A
C926       C1167   1.491       .  S
O927        C934   1.278       .  A
C929       H1366   1.084       .  S
C929       O1355   1.237       .  S
C929        O944   1.271       .  A
O930        C953   1.271       .  A
O931       Mg945   2.160   1_556  S
O932       Mg962   2.328   1_554  S
C933        O946   1.273       .  A
C933        O938   1.280       .  A
C933       C1055   1.508       .  S
C934        O961   1.273       .  A
C934       C1198   1.511       .  S
Mg935       O942   2.148       .  S
Mg935      O1355   2.153   1_554  S
Mg935       O936   2.297   1_554  S
Mg935      O1349   2.291       .  S
Mg935      O1376   2.252       .  S
O937        C941   1.269   1_655  A
O937      Mg1347   2.295   1_545  S
O938       Mg945   2.331   1_556  S
O939        C958   1.274       .  A
O939      Mg1337   2.274       .  S
O940        C960   1.274       .  A
O940       Mg956   2.309   1_554  S
O942       Mg956   2.146   1_554  S
O942        C953   1.236       .  S
O943      Mg1347   2.151   1_546  S
O943       Mg962   2.148       .  S
O943       C1341   1.236       .  S
O944       Mg956   2.305       .  S
Mg945       O961   2.268       .  S
H947       C1364   1.083       .  S
O948       Mg956   2.152       .  S
H950        C953   1.083       .  S
C952       H1359   1.083       .  S
C952       O1329   1.237       .  S
H954       C1341   1.084       .  S
C958        O963   1.277       .  A
C958       C1086   1.517       .  S
O959        C960   1.275       .  A
C960       C1181   1.516       .  S
O964      Mg1347   2.256   1_545  S
O965       Mg967   2.147       .  S
C966       H1005   1.080       .  S
C966        O979   1.236       .  S
C966       O1003   1.269       .  A
Mg967      O1408   2.164   1_545  S
Mg967      O1011   2.316       .  S
Mg967      O1419   2.279   1_545  S
Mg967      O1390   2.303   1_545  S
O968      Mg1422   2.159   1_545  S
O968       Mg993   2.149       .  S
O968       C1401   1.237   1_545  S
O969       C1000   1.269       .  A
O969       Mg993   2.294       .  S
C970        O972   1.274       .  A
C970        O984   1.273       .  A
C970       C1142   1.508       .  S
O971        C999   1.272   1_545  A
O972      Mg1004   2.284       .  S
Mg973       O979   2.146       .  S
Mg973       O975   2.330       .  S
C974       O1012   1.272       .  A
C974        O980   1.277       .  A
C974       C1041   1.492       .  S
O975        C982   1.279       .  A
H976       C1401   1.081   1_545  S
C977        O992   1.271       .  A
O978       C1001   1.271       .  A
O978      Mg1379   2.303       .  S
O979       Mg993   2.163       .  S
O980      Mg1010   2.328       .  S
C981        O994   1.273       .  A
C981        O986   1.278       .  A
C981       C1156   1.499       .  S
C982       O1009   1.274       .  A
C982       C1013   1.513       .  S
Mg983       O990   2.153       .  S
Mg983       O984   2.298       .  S
O985        C989   1.270       .  A
O986       Mg993   2.326       .  S
O987       C1006   1.274       .  A
O988       C1008   1.276       .  A
O988      Mg1004   2.319       .  S
C989       H1388   1.081       .  S
C989       O1380   1.237       .  S
O990      Mg1004   2.150       .  S
O990       C1001   1.236       .  S
O991      Mg1010   2.149       .  S
O992      Mg1004   2.308       .  S
Mg993      O1009   2.274       .  S
O994      Mg1422   2.263   1_545  S
O996      Mg1379   2.163       .  S
O996      Mg1004   2.160       .  S
O996       C1411   1.237       .  S
H997       C1411   1.082       .  S
H998       C1001   1.079       .  S
C999       H1409   1.082       .  S
C999       O1408   1.237       .  S
O1003     Mg1422   2.293   1_545  S
C1006      O1011   1.278       .  A
C1006      C1128   1.511       .  S
O1007      C1008   1.273       .  A
O1007     Mg1379   2.277       .  S
C1008      C1030   1.520       .  S
Mg1010     O1380   2.159       .  S
Mg1010     O1406   2.267       .  S
Mg1010     O1415   2.294       .  S
C1013      C1014   1.424       .  A
C1013      C1018   1.427       .  A
C1014      C1015   1.415       .  A
C1014      C1019   1.450       .  S
C1015      C1016   1.405       .  A
C1015      C1022   1.449       .  S
C1016      C1017   1.404       .  A
C1017      C1018   1.415       .  A
C1017      C1020   1.449       .  S
C1018      C1021   1.451       .  S
C1019      N1026   1.157       .  T
C1020      N1025   1.157       .  T
C1021      N1023   1.158       .  T
C1022      N1024   1.157       .  T
C1027      C1028   1.402       .  A
C1027      C1032   1.403       .  A
C1028      C1029   1.416       .  A
C1028      C1033   1.450       .  S
C1029      C1030   1.431       .  A
C1029      C1036   1.451       .  S
C1030      C1031   1.430       .  A
C1031      C1032   1.414       .  A
C1031      C1034   1.451       .  S
C1032      C1035   1.450       .  S
C1033      N1040   1.157       .  T
C1034      N1039   1.158       .  T
C1035      N1037   1.157       .  T
C1036      N1038   1.157       .  T
C1041      C1042   1.415       .  A
C1041      C1046   1.411       .  A
C1042      C1043   1.414       .  A
C1042      C1047   1.451       .  S
C1043      C1044   1.413       .  A
C1043      C1050   1.450       .  S
C1044      C1045   1.417       .  A
C1045      C1046   1.415       .  A
C1045      C1048   1.448       .  S
C1046      C1049   1.451       .  S
C1047      N1054   1.157       .  T
C1048      N1053   1.157       .  T
C1049      N1051   1.157       .  T
C1050      N1052   1.157       .  T
C1055      C1056   1.426       .  A
C1055      C1060   1.423       .  A
C1056      C1057   1.412       .  A
C1056      C1061   1.451       .  S
C1057      C1058   1.403       .  A
C1057      C1064   1.449       .  S
C1058      C1059   1.405       .  A
C1059      C1060   1.415       .  A
C1059      C1062   1.448       .  S
C1060      C1063   1.451       .  S
C1061      N1068   1.158       .  T
C1062      N1067   1.157       .  T
C1063      N1065   1.158       .  T
C1064      N1066   1.157       .  T
C1069      C1070   1.419   1_556  A
C1069      C1074   1.416       .  A
C1070      C1071   1.412       .  A
C1070      C1075   1.454       .  S
C1071      C1072   1.414   1_554  A
C1071      C1078   1.447       .  S
C1072      C1073   1.417       .  A
C1073      C1074   1.415       .  A
C1073      C1076   1.448       .  S
C1074      C1077   1.450       .  S
C1075      N1082   1.158       .  T
C1076      N1081   1.157       .  T
C1077      N1079   1.157       .  T
C1078      N1080   1.156       .  T
C1083      C1084   1.402       .  A
C1083      C1088   1.403       .  A
C1084      C1085   1.415       .  A
C1084      C1089   1.450       .  S
C1085      C1086   1.429       .  A
C1085      C1092   1.451       .  S
C1086      C1087   1.429       .  A
C1087      C1088   1.413       .  A
C1087      C1090   1.452       .  S
C1088      C1091   1.450       .  S
C1089      N1096   1.157       .  T
C1090      N1095   1.158       .  T
C1091      N1093   1.157       .  T
C1092      N1094   1.158       .  T
C1097      C1098   1.416       .  A
C1097      C1102   1.416       .  A
C1098      C1099   1.413       .  A
C1098      C1103   1.450       .  S
C1099      C1100   1.421       .  A
C1099      C1106   1.452       .  S
C1100      C1101   1.423       .  A
C1101      C1102   1.415       .  A
C1101      C1104   1.451       .  S
C1102      C1105   1.450       .  S
C1103      N1110   1.156       .  T
C1104      N1109   1.157       .  T
C1105      N1107   1.157       .  T
C1106      N1108   1.158       .  T
C1111      C1112   1.419       .  A
C1111      C1116   1.416       .  A
C1112      C1113   1.415       .  A
C1112      C1117   1.449       .  S
C1113      C1114   1.418       .  A
C1113      C1120   1.450       .  S
C1114      C1115   1.421       .  A
C1115      C1116   1.412       .  A
C1115      C1118   1.451       .  S
C1116      C1119   1.450       .  S
C1117      N1124   1.157       .  T
C1118      N1123   1.157       .  T
C1119      N1121   1.157       .  T
C1120      N1122   1.157       .  T
C1125      C1126   1.404       .  A
C1125      C1130   1.403       .  A
C1126      C1127   1.413       .  A
C1126      C1131   1.450       .  S
C1127      C1128   1.424       .  A
C1127      C1134   1.451       .  S
C1128      C1129   1.425       .  A
C1129      C1130   1.413       .  A
C1129      C1132   1.449       .  S
C1130      C1133   1.450       .  S
C1131      N1138   1.157       .  T
C1132      N1137   1.157       .  T
C1133      N1135   1.157       .  T
C1134      N1136   1.158       .  T
C1139      C1140   1.407       .  A
C1139      C1144   1.405       .  A
C1140      C1141   1.413       .  A
C1140      C1145   1.450       .  S
C1141      C1142   1.423       .  A
C1141      C1148   1.450       .  S
C1142      C1143   1.428       .  A
C1143      C1144   1.411       .  A
C1143      C1146   1.452       .  S
C1144      C1147   1.451       .  S
C1145      N1152   1.157       .  T
C1146      N1151   1.157       .  T
C1147      N1149   1.157       .  T
C1148      N1150   1.157       .  T
C1153      C1154   1.409       .  A
C1153      C1158   1.407       .  A
C1154      C1155   1.416       .  A
C1154      C1159   1.448       .  S
C1155      C1156   1.419       .  A
C1155      C1162   1.451       .  S
C1156      C1157   1.420       .  A
C1157      C1158   1.411       .  A
C1157      C1160   1.451       .  S
C1158      C1161   1.450       .  S
C1159      N1166   1.157       .  T
C1160      N1165   1.157       .  T
C1161      N1163   1.157       .  T
C1162      N1164   1.158       .  T
C1167      C1168   1.414       .  A
C1167      C1172   1.416       .  A
C1168      C1169   1.416       .  A
C1168      C1173   1.450       .  S
C1169      C1170   1.414       .  A
C1169      C1176   1.448       .  S
C1170      C1171   1.413       .  A
C1171      C1172   1.410       .  A
C1171      C1174   1.449   1_554  S
C1172      C1175   1.453   1_554  S
C1173      N1180   1.157       .  T
C1174      N1179   1.157       .  T
C1175      N1177   1.158       .  T
C1176      N1178   1.157       .  T
C1181      C1182   1.425       .  A
C1181      C1186   1.429       .  A
C1182      C1183   1.416       .  A
C1182      C1187   1.451       .  S
C1183      C1184   1.408       .  A
C1183      C1190   1.450       .  S
C1184      C1185   1.404       .  A
C1185      C1186   1.414       .  A
C1185      C1188   1.451       .  S
C1186      C1189   1.450   1_554  S
C1187      N1194   1.158       .  T
C1188      N1193   1.157   1_554  T
C1189      N1191   1.157       .  T
C1190      N1192   1.157       .  T
C1195      C1196   1.404       .  A
C1195      C1200   1.401       .  A
C1196      C1197   1.413       .  A
C1196      C1201   1.450       .  S
C1197      C1198   1.425       .  A
C1197      C1204   1.451       .  S
C1198      C1199   1.428       .  A
C1199      C1200   1.412       .  A
C1199      C1202   1.450       .  S
C1200      C1203   1.450       .  S
C1201      N1208   1.157       .  T
C1202      N1207   1.157       .  T
C1203      N1205   1.157       .  T
C1204      N1206   1.158       .  T
C1209      C1210   1.418       .  A
C1209      C1214   1.421       .  A
C1210      C1211   1.413       .  A
C1210      C1215   1.452       .  S
C1211      C1212   1.421       .  A
C1211      C1218   1.452       .  S
C1212      C1213   1.419       .  A
C1213      C1214   1.411       .  A
C1213      C1216   1.454       .  S
C1214      C1217   1.452       .  S
C1215      N1222   1.158       .  T
C1216      N1221   1.158       .  T
C1217      N1219   1.157       .  T
C1218      N1220   1.158       .  T
C1223      C1224   1.417       .  A
C1223      C1228   1.418       .  A
C1224      C1225   1.411       .  A
C1224      C1229   1.452       .  S
C1225      C1226   1.421       .  A
C1225      C1232   1.452       .  S
C1226      C1227   1.423       .  A
C1227      C1228   1.412       .  A
C1227      C1230   1.453       .  S
C1228      C1231   1.452       .  S
C1229      N1236   1.157       .  T
C1230      N1235   1.158       .  T
C1231      N1233   1.158       .  T
C1232      N1234   1.158       .  T
C1237      C1239   1.545       .  S
C1237      C1241   1.549       .  S
C1237      C1240   1.530       .  S
C1237      C1638   1.540       .  S
C1238      C1242   1.536   1_556  S
C1238      C1244   1.549   1_556  S
C1238      C1243   1.543   1_556  S
C1238      C1621   1.541       .  S
C1239      C1247   1.385       .  A
C1239      C1242   1.391       .  A
C1240      C1251   1.377       .  A
C1240      C1243   1.387       .  A
C1241      C1255   1.382       .  A
C1241      C1244   1.399       .  A
C1242      C1245   1.376   1_554  A
C1243      C1249   1.384   1_554  A
C1244      C1252   1.382       .  A
C1245      N1246   1.358   1_556  A
C1245      H1258   1.083       .  S
N1246      C1247   1.360       .  A
N1246      C1582   1.447       .  S
C1247      H1248   1.082       .  S
C1249      N1250   1.356   1_556  A
C1249      H1259   1.082       .  S
N1250      C1251   1.352       .  A
N1250      C1607   1.437       .  S
C1251      H1257   1.082       .  S
C1252      N1253   1.357       .  A
C1252      H1254   1.082   1_554  S
N1253      C1255   1.357       .  A
N1253      C1596   1.443       .  S
C1255      H1256   1.082       .  S
C1260      C1262   1.545       .  S
C1260      C1264   1.537       .  S
C1260      C1263   1.546       .  S
C1260      C1635   1.538       .  S
C1261      C1265   1.533       .  S
C1261      C1267   1.547       .  S
C1261      C1266   1.548       .  S
C1261      C1624   1.540       .  S
C1262      C1270   1.386       .  A
C1262      C1265   1.388       .  A
C1263      C1274   1.379       .  A
C1263      C1266   1.398       .  A
C1264      C1278   1.378       .  A
C1264      C1267   1.391       .  A
C1265      C1268   1.377       .  A
C1266      C1272   1.382       .  A
C1267      C1275   1.386       .  A
C1268      N1269   1.353       .  A
C1268      H1281   1.082       .  S
N1269      C1270   1.358       .  A
N1269      C1537   1.439       .  S
C1270      H1271   1.082       .  S
C1272      N1273   1.357       .  A
C1272      H1282   1.082       .  S
N1273      C1274   1.355       .  A
N1273      C1551   1.442       .  S
C1274      H1280   1.082       .  S
C1275      N1276   1.359       .  A
C1275      H1277   1.082       .  S
N1276      C1278   1.358       .  A
N1276      C1565   1.445       .  S
C1278      H1279   1.083       .  S
C1283      C1285   1.531   1_554  S
C1283      C1287   1.547   1_554  S
C1283      C1286   1.547   1_554  S
C1283      C1523   1.543       .  S
C1284      C1288   1.546       .  S
C1284      C1290   1.554       .  S
C1284      C1289   1.539       .  S
C1284      C1509   1.545       .  S
C1285      C1293   1.376       .  A
C1285      C1288   1.390       .  A
C1286      C1297   1.384   1_556  A
C1286      C1289   1.391       .  A
C1287      C1301   1.381       .  A
C1287      C1290   1.400       .  A
C1288      C1291   1.386       .  A
C1289      C1295   1.380       .  A
C1290      C1298   1.386       .  A
C1291      N1292   1.358       .  A
C1291      H1304   1.082       .  S
N1292      C1293   1.354       .  A
N1292      C1495   1.440       .  S
C1293      H1294   1.083   1_556  S
C1295      N1296   1.361       .  A
C1295      H1305   1.082       .  S
N1296      C1297   1.362   1_556  A
N1296      C1484   1.452       .  S
C1297      H1303   1.082       .  S
C1298      N1299   1.357       .  A
C1298      H1300   1.082       .  S
N1299      C1301   1.355       .  A
N1299      C1470   1.442       .  S
C1301      H1302   1.082   1_556  S
C1306      C1308   1.536       .  S
C1306      C1310   1.547       .  S
C1306      C1309   1.552       .  S
C1306      C1526   1.543       .  S
C1307      C1311   1.548       .  S
C1307      C1313   1.531       .  S
C1307      C1312   1.551       .  S
C1307      C1512   1.546       .  S
C1308      C1316   1.378       .  A
C1308      C1311   1.391       .  A
C1309      C1320   1.386       .  A
C1309      C1312   1.401       .  A
C1310      C1324   1.387       .  A
C1310      C1313   1.389       .  A
C1311      C1314   1.384       .  A
C1312      C1318   1.382       .  A
C1313      C1321   1.376       .  A
C1314      N1315   1.363       .  A
C1314      H1327   1.083       .  S
N1315      C1316   1.358       .  A
N1315      C1456   1.451       .  S
C1316      H1317   1.082       .  S
C1318      N1319   1.356       .  A
C1318      H1328   1.082       .  S
N1319      C1320   1.357       .  A
N1319      C1428   1.443       .  S
C1320      H1326   1.082       .  S
C1321      N1322   1.354       .  A
C1321      H1323   1.083       .  S
N1322      C1324   1.359       .  A
N1322      C1439   1.441       .  S
C1324      H1325   1.082       .  S
O1329     Mg1331   2.158       .  S
C1330      H1369   1.083       .  S
C1330      O1343   1.236       .  S
C1330      O1367   1.269       .  A
Mg1331     O1375   2.319   1_554  S
O1332     Mg1357   2.143       .  S
O1333      C1364   1.271       .  A
O1333     Mg1357   2.300       .  S
C1334      O1336   1.272       .  A
C1334      O1348   1.274       .  A
C1334      C1481   1.506       .  S
O1335      C1363   1.271       .  A
O1336     Mg1368   2.281       .  S
Mg1337     O1343   2.145       .  S
Mg1337     O1339   2.326   1_556  S
C1338      O1376   1.271       .  A
C1338      O1344   1.278       .  A
C1338      C1579   1.491       .  S
O1339      C1346   1.279       .  A
C1341      O1356   1.271   1_545  A
O1342      C1365   1.271       .  A
O1343     Mg1357   2.160   1_556  S
O1344     Mg1374   2.328   1_554  S
C1345      O1358   1.273       .  A
C1345      O1350   1.280       .  A
C1345      C1467   1.508       .  S
C1346      O1373   1.273       .  A
C1346      C1610   1.510       .  S
Mg1347     O1354   2.148       .  S
Mg1347     O1348   2.304   1_554  S
O1349      C1353   1.269   1_655  A
O1350     Mg1357   2.332   1_556  S
O1351      C1370   1.273       .  A
O1352      C1372   1.274       .  A
O1352     Mg1368   2.304   1_554  S
O1354     Mg1368   2.150   1_554  S
O1354      C1365   1.236       .  S
O1355     Mg1374   2.147       .  S
O1356     Mg1368   2.305       .  S
Mg1357     O1373   2.270       .  S
O1360     Mg1368   2.154       .  S
H1362      C1365   1.083       .  S
C1370      O1375   1.276       .  A
C1370      C1498   1.518       .  S
O1371      C1372   1.275       .  A
C1372      C1593   1.518       .  S
O1377     Mg1379   2.146       .  S
C1378      H1417   1.080       .  S
C1378      O1391   1.236       .  S
C1378      O1415   1.269       .  A
Mg1379     O1423   2.319       .  S
O1380     Mg1405   2.150       .  S
O1381      C1412   1.270       .  A
O1381     Mg1405   2.295       .  S
C1382      O1384   1.274       .  A
C1382      O1396   1.273       .  A
C1382      C1554   1.509       .  S
O1383      C1411   1.272       .  A
O1384     Mg1416   2.284       .  S
Mg1385     O1391   2.147       .  S
Mg1385     O1387   2.330       .  S
C1386      O1424   1.271       .  A
C1386      O1392   1.277       .  A
C1386      C1453   1.491       .  S
O1387      C1394   1.279       .  A
C1389      O1404   1.271       .  A
O1390      C1413   1.271       .  A
O1391     Mg1405   2.163       .  S
O1392     Mg1422   2.326       .  S
C1393      O1406   1.274       .  A
C1393      O1398   1.279       .  A
C1393      C1568   1.500       .  S
C1394      O1421   1.274       .  A
C1394      C1425   1.513       .  S
Mg1395     O1402   2.156       .  S
Mg1395     O1396   2.299       .  S
O1397      C1401   1.270       .  A
O1398     Mg1405   2.331       .  S
O1399      C1418   1.274       .  A
O1400      C1420   1.276       .  A
O1400     Mg1416   2.321       .  S
O1402     Mg1416   2.151       .  S
O1402      C1413   1.236       .  S
O1403     Mg1422   2.147       .  S
O1404     Mg1416   2.309       .  S
Mg1405     O1421   2.275       .  S
O1408     Mg1416   2.159       .  S
H1410      C1413   1.079       .  S
C1418      O1423   1.278       .  A
C1418      C1540   1.512       .  S
O1419      C1420   1.273       .  A
C1420      C1442   1.520       .  S
C1425      C1426   1.424       .  A
C1425      C1430   1.427       .  A
C1426      C1427   1.416       .  A
C1426      C1431   1.450       .  S
C1427      C1428   1.405       .  A
C1427      C1434   1.449       .  S
C1428      C1429   1.404       .  A
C1429      C1430   1.414       .  A
C1429      C1432   1.449       .  S
C1430      C1433   1.451       .  S
C1431      N1438   1.157       .  T
C1432      N1437   1.157       .  T
C1433      N1435   1.158       .  T
C1434      N1436   1.157       .  T
C1439      C1440   1.402       .  A
C1439      C1444   1.403       .  A
C1440      C1441   1.415       .  A
C1440      C1445   1.450       .  S
C1441      C1442   1.431       .  A
C1441      C1448   1.451       .  S
C1442      C1443   1.430       .  A
C1443      C1444   1.414       .  A
C1443      C1446   1.451       .  S
C1444      C1447   1.450       .  S
C1445      N1452   1.157       .  T
C1446      N1451   1.158   1_565  T
C1447      N1449   1.157       .  T
C1448      N1450   1.157       .  T
C1453      C1454   1.415       .  A
C1453      C1458   1.411       .  A
C1454      C1455   1.413       .  A
C1454      C1459   1.451       .  S
C1455      C1456   1.413       .  A
C1455      C1462   1.449       .  S
C1456      C1457   1.417       .  A
C1457      C1458   1.415       .  A
C1457      C1460   1.448       .  S
C1458      C1461   1.451       .  S
C1459      N1466   1.157       .  T
C1460      N1465   1.157       .  T
C1461      N1463   1.157       .  T
C1462      N1464   1.157       .  T
C1467      C1468   1.425       .  A
C1467      C1472   1.422       .  A
C1468      C1469   1.413       .  A
C1468      C1473   1.452       .  S
C1469      C1470   1.404       .  A
C1469      C1476   1.449       .  S
C1470      C1471   1.406       .  A
C1471      C1472   1.415       .  A
C1471      C1474   1.448       .  S
C1472      C1475   1.451       .  S
C1473      N1480   1.158       .  T
C1474      N1479   1.157       .  T
C1475      N1477   1.158       .  T
C1476      N1478   1.157       .  T
C1481      C1482   1.421   1_556  A
C1481      C1486   1.420       .  A
C1482      C1483   1.412   1_554  A
C1482      C1487   1.454       .  S
C1483      C1484   1.412       .  A
C1483      C1490   1.447   1_556  S
C1484      C1485   1.414       .  A
C1485      C1486   1.417       .  A
C1485      C1488   1.448       .  S
C1486      C1489   1.451       .  S
C1487      N1494   1.158       .  T
C1488      N1493   1.157       .  T
C1489      N1491   1.157       .  T
C1490      N1492   1.156       .  T
C1495      C1496   1.403       .  A
C1495      C1500   1.403       .  A
C1496      C1497   1.415       .  A
C1496      C1501   1.450       .  S
C1497      C1498   1.430       .  A
C1497      C1504   1.451       .  S
C1498      C1499   1.429       .  A
C1499      C1500   1.413       .  A
C1499      C1502   1.452       .  S
C1500      C1503   1.449       .  S
C1501      N1508   1.157       .  T
C1502      N1507   1.158       .  T
C1503      N1505   1.157       .  T
C1504      N1506   1.157       .  T
C1509      C1510   1.416       .  A
C1509      C1514   1.415       .  A
C1510      C1511   1.413       .  A
C1510      C1515   1.449       .  S
C1511      C1512   1.421       .  A
C1511      C1518   1.452       .  S
C1512      C1513   1.423       .  A
C1513      C1514   1.415       .  A
C1513      C1516   1.450       .  S
C1514      C1517   1.450       .  S
C1515      N1522   1.156       .  T
C1516      N1521   1.157       .  T
C1517      N1519   1.157       .  T
C1518      N1520   1.158       .  T
C1523      C1524   1.418       .  A
C1523      C1528   1.416       .  A
C1524      C1525   1.415       .  A
C1524      C1529   1.449       .  S
C1525      C1526   1.418       .  A
C1525      C1532   1.450       .  S
C1526      C1527   1.421       .  A
C1527      C1528   1.412       .  A
C1527      C1530   1.451       .  S
C1528      C1531   1.450       .  S
C1529      N1536   1.156       .  T
C1530      N1535   1.157       .  T
C1531      N1533   1.157       .  T
C1532      N1534   1.157       .  T
C1537      C1538   1.405       .  A
C1537      C1542   1.403       .  A
C1538      C1539   1.414       .  A
C1538      C1543   1.450       .  S
C1539      C1540   1.424       .  A
C1539      C1546   1.451       .  S
C1540      C1541   1.426       .  A
C1541      C1542   1.414       .  A
C1541      C1544   1.449       .  S
C1542      C1545   1.450       .  S
C1543      N1550   1.157       .  T
C1544      N1549   1.158       .  T
C1545      N1547   1.157       .  T
C1546      N1548   1.158       .  T
C1551      C1552   1.407       .  A
C1551      C1556   1.405       .  A
C1552      C1553   1.414       .  A
C1552      C1557   1.450       .  S
C1553      C1554   1.424       .  A
C1553      C1560   1.451       .  S
C1554      C1555   1.428       .  A
C1555      C1556   1.411       .  A
C1555      C1558   1.452       .  S
C1556      C1559   1.451       .  S
C1557      N1564   1.157       .  T
C1558      N1563   1.157       .  T
C1559      N1561   1.157       .  T
C1560      N1562   1.157       .  T
C1565      C1566   1.409       .  A
C1565      C1570   1.408       .  A
C1566      C1567   1.417       .  A
C1566      C1571   1.448       .  S
C1567      C1568   1.419       .  A
C1567      C1574   1.450       .  S
C1568      C1569   1.420       .  A
C1569      C1570   1.411       .  A
C1569      C1572   1.451       .  S
C1570      C1573   1.450       .  S
C1571      N1578   1.157       .  T
C1572      N1577   1.157       .  T
C1573      N1575   1.157       .  T
C1574      N1576   1.158       .  T
C1579      C1580   1.414       .  A
C1579      C1584   1.417       .  A
C1580      C1581   1.416       .  A
C1580      C1585   1.450       .  S
C1581      C1582   1.413       .  A
C1581      C1588   1.448       .  S
C1582      C1583   1.412       .  A
C1583      C1584   1.410       .  A
C1583      C1586   1.450   1_554  S
C1584      C1587   1.453   1_554  S
C1585      N1592   1.157       .  T
C1586      N1591   1.157       .  T
C1587      N1589   1.158       .  T
C1588      N1590   1.157       .  T
C1593      C1594   1.427       .  A
C1593      C1598   1.431       .  A
C1594      C1595   1.416       .  A
C1594      C1599   1.451       .  S
C1595      C1596   1.406       .  A
C1595      C1602   1.450       .  S
C1596      C1597   1.403       .  A
C1597      C1598   1.414       .  A
C1597      C1600   1.451       .  S
C1598      C1601   1.450       .  S
C1599      N1606   1.158       .  T
C1600      N1605   1.157       .  T
C1601      N1603   1.157       .  T
C1602      N1604   1.157       .  T
C1607      C1608   1.404       .  A
C1607      C1612   1.401       .  A
C1608      C1609   1.413       .  A
C1608      C1613   1.450       .  S
C1609      C1610   1.425       .  A
C1609      C1616   1.451       .  S
C1610      C1611   1.428       .  A
C1611      C1612   1.412       .  A
C1611      C1614   1.450       .  S
C1612      C1615   1.450       .  S
C1613      N1620   1.157       .  T
C1614      N1619   1.157       .  T
C1615      N1617   1.157       .  T
C1616      N1618   1.158       .  T
C1621      C1622   1.418       .  A
C1621      C1626   1.421       .  A
C1622      C1623   1.414       .  A
C1622      C1627   1.452       .  S
C1623      C1624   1.422       .  A
C1623      C1630   1.452       .  S
C1624      C1625   1.419       .  A
C1625      C1626   1.410       .  A
C1625      C1628   1.454       .  S
C1626      C1629   1.452       .  S
C1627      N1634   1.158       .  T
C1628      N1633   1.158       .  T
C1629      N1631   1.157       .  T
C1630      N1632   1.158       .  T
C1635      C1636   1.416       .  A
C1635      C1640   1.417       .  A
C1636      C1637   1.411       .  A
C1636      C1641   1.452       .  S
C1637      C1638   1.421       .  A
C1637      C1644   1.452       .  S
C1638      C1639   1.423       .  A
C1639      C1640   1.412       .  A
C1639      C1642   1.453       .  S
C1640      C1643   1.453       .  S
C1641      N1648   1.157       .  T
C1642      N1647   1.158       .  T
C1643      N1645   1.158       .  T
C1644      N1646   1.158       .  T
