geometry optimzed in LAMMPS
_audit_creation_date              2020-12-01 
_audit_creation_method            'lammps2cif' 
_symmetry_space_group_name_H-M    'P1' 
_symmetry_Int_Tables_number       1 
_symmetry_cell_setting            triclinic 
loop_ 
_symmetry_equiv_pos_as_xyz 
  x,y,z 
_cell_length_a                    43.27870427 
_cell_length_b                    43.338398071502446 
_cell_length_c                    30.20549728236143 
_cell_angle_alpha                 90.60456256028716 
_cell_angle_beta                  90.11627561087046 
_cell_angle_gamma                 122.79748294048535 
loop_ 
_atom_site_label 
_atom_site_type_symbol 
_atom_site_fract_x 
_atom_site_fract_y 
_atom_site_fract_z 
_atom_site_charge 
N1          N  0.63842559  0.10056513  0.26525318    -0.27900
N2          N  0.62842134  0.11038009  0.30133473    -0.35800
C3          C  0.64841472  0.11100900  0.33589122     0.00400
C4          C  0.67250092  0.10145969  0.32100625     0.06400
C5          C  0.66502840  0.09465931  0.27602009    -0.06700
H6          H  0.64431341  0.11617466  0.36983604     0.07100
H7          H  0.67733759  0.08512472  0.25297660     0.08300
Cu8        Cu  0.58520273  0.11856698  0.30305904     0.44200
Cu9        Cu  0.61315531  0.09300476  0.20386468     0.42000
Cu10       Cu  0.53069784  0.09618237  0.20273686     0.43900
N11         N  0.53692023  0.11822645  0.29909825    -0.35300
N12         N  0.51624234  0.10862217  0.26294084    -0.29600
C13         C  0.48501395  0.10698644  0.27261124    -0.05700
C14         C  0.48633486  0.11667514  0.31675280     0.06600
C15         C  0.51958392  0.12342467  0.33248918     0.00300
H16         H  0.46245297  0.09822736  0.24957196     0.08000
H17         H  0.52939129  0.12941653  0.36645171     0.07100
N18         N  0.55212510  0.08615223  0.14671571    -0.36800
N19         N  0.58218608  0.08525393  0.14715261    -0.28900
C20         C  0.58876224  0.07853762  0.10576653    -0.04200
C21         C  0.56127023  0.07450156  0.07786518     0.04400
C22         C  0.53880482  0.07998534  0.10500553     0.02500
H23         H  0.61216207  0.07726294  0.09665978     0.07600
H24         H  0.51447018  0.07940097  0.09517484     0.06500
N25         N  0.47345673  0.02629944  0.69826932    -0.27900
N26         N  0.48615742  0.01937866  0.66233625    -0.35800
C27         C  0.46643043  0.01783295  0.62702217     0.00400
C28         C  0.43938118  0.02343601  0.64120781     0.06400
C29         C  0.44501566  0.02914528  0.68664925    -0.06700
H30         H  0.47254189  0.01459008  0.59330762     0.07100
H31         H  0.43015135  0.03584652  0.70943580     0.08300
Cu32       Cu  0.53121491  0.01464481  0.66204197     0.44200
Cu33       Cu  0.49799919  0.03420822  0.76038698     0.42000
Cu34       Cu  0.58312104  0.03409284  0.76288187     0.43900
N35         N  0.57836316  0.01367340  0.66664662    -0.35300
N36         N  0.59843802  0.02200957  0.70311030    -0.29600
C37         C  0.62893753  0.02212462  0.69370294    -0.05700
C38         C  0.62747451  0.01266190  0.64939349     0.06600
C39         C  0.59516782  0.00783229  0.63334773     0.00300
H40         H  0.65103085  0.02956532  0.71702067     0.08000
H41         H  0.58563487  0.00261011  0.59930236     0.07100
N42         N  0.55996255  0.04296560  0.81804461    -0.36800
N43         N  0.52934425  0.04290066  0.81724862    -0.28900
C44         C  0.52223045  0.04921335  0.85858582    -0.04200
C45         C  0.54983536  0.05384019  0.88675247     0.04400
C46         C  0.57299291  0.04925033  0.85987399     0.02500
H47         H  0.49840105  0.04979020  0.86750640     0.07600
H48         H  0.59762915  0.05049940  0.86997682     0.06500
N49         N  0.57484972  0.67824422  0.25709559    -0.27900
N50         N  0.55507373  0.66232858  0.29254902    -0.35800
C51         C  0.57640691  0.67651245  0.32867102     0.00400
C52         C  0.61170370  0.70291922  0.31573430     0.06400
C53         C  0.60956442  0.70363312  0.26982927    -0.06700
H54         H  0.56724020  0.66671159  0.36192681     0.07100
H55         H  0.63146470  0.72057876  0.24709525     0.08300
Cu56       Cu  0.50180500  0.61837018  0.29008003     0.44200
Cu57       Cu  0.55297330  0.65910405  0.19443026     0.42000
Cu58       Cu  0.46255691  0.56870186  0.18906016     0.43900
N59         N  0.45477962  0.56707657  0.28725194    -0.35300
N60         N  0.44033068  0.54739168  0.25063194    -0.29600
C61         C  0.41301661  0.51318341  0.26170161    -0.05700
C62         C  0.41072343  0.51166169  0.30759652     0.06600
C63         C  0.43739546  0.54641090  0.32237829     0.00300
H64         H  0.39703626  0.49096996  0.23830255     0.08000
H65         H  0.44525350  0.55540944  0.35638573     0.07100
N66         N  0.49427089  0.59795393  0.13497040    -0.36800
N67         N  0.52621259  0.62989861  0.13722300    -0.28900
C68         C  0.54030618  0.63929793  0.09642146    -0.04200
C69         C  0.51638697  0.61194722  0.06714429     0.04400
C70         C  0.48727324  0.58640789  0.09247791     0.02500
H71         H  0.56664832  0.66365500  0.08892264     0.07600
H72         H  0.46363573  0.56047791  0.08119960     0.06500
N73         N  0.49617443  0.49615082  0.71357386    -0.27900
N74         N  0.52166410  0.49528039  0.69071631    -0.35800
C75         C  0.50564621  0.47206105  0.65618659     0.00400
C76         C  0.46820042  0.45774129  0.65696974     0.08200
C77         C  0.46331266  0.47383200  0.69391895    -0.06700
H78         H  0.52067953  0.46842878  0.63026677     0.07100
H79         H  0.43842389  0.47215672  0.70361832     0.08300
Cu80       Cu  0.57736498  0.53368656  0.69841642     0.44200
Cu81       Cu  0.50805692  0.53192731  0.76592754     0.42000
Cu82       Cu  0.60145477  0.61101843  0.76923145     0.43900
N83         N  0.62538871  0.58474812  0.69210959    -0.35300
N84         N  0.63326169  0.61372867  0.71631006    -0.29600
C85         C  0.66079692  0.64409955  0.69705617    -0.05700
C86         C  0.67096901  0.63380598  0.65887602     0.06600
C87         C  0.64785760  0.59585457  0.65711596     0.00300
H88         H  0.67001800  0.67172386  0.70761819     0.08000
H89         H  0.64500907  0.57788580  0.63006344     0.07100
N90         N  0.56317691  0.59916014  0.81821828    -0.36800
N91         N  0.52899224  0.57037916  0.81666146    -0.28900
C92         C  0.51198619  0.56893504  0.85444523    -0.04200
C93         C  0.53655376  0.59840250  0.88106499     0.04400
C94         C  0.56884976  0.61681018  0.85718025     0.02500
H95         H  0.48452973  0.54684605  0.86291037     0.07600
H96         H  0.59493366  0.64041092  0.86802323     0.06500
N97         N  0.04214395  0.49181806  0.70458558    -0.27900
N98         N  0.05431456  0.51372350  0.67004917    -0.35800
C99         C  0.06304848  0.49828329  0.63783560     0.00400
C100        C  0.05627761  0.46511810  0.65267117     0.06400
C101        C  0.04254501  0.46159499  0.69497226    -0.06700
H102        H  0.07277801  0.50997974  0.60541310     0.07100
H103        H  0.03358804  0.43881429  0.71713406     0.08300
Cu104      Cu  0.05783246  0.56325329  0.66679608     0.44200
Cu105      Cu  0.02698265  0.50535760  0.76320239     0.42000
Cu106      Cu  0.03334009  0.59338013  0.76307034     0.43900
N107        N  0.05932007  0.61181440  0.66973073    -0.35300
N108        N  0.04966297  0.62275856  0.70505437    -0.29600
C109        C  0.05295742  0.65480355  0.69638918    -0.05700
C110        C  0.06589289  0.66476044  0.65371689     0.06600
C111        C  0.06919185  0.63663179  0.63766301     0.00300
H112        H  0.04640729  0.66972282  0.71943346     0.08000
H113        H  0.07730330  0.63393002  0.60473049     0.07100
N114        N  0.02303293  0.56171112  0.81849205    -0.36800
N115        N  0.02045400  0.52986840  0.81873532    -0.28900
C116        C  0.01609513  0.51820311  0.86070528    -0.04200
C117        C  0.01653834  0.54421836  0.88811462     0.04400
C118        C  0.02048670  0.57116466  0.86017647     0.02500
H119        H  0.01424548  0.49337531  0.87070313     0.07600
H120        H  0.02213131  0.59615354  0.86942639     0.06500
N121        N  0.03959819  0.61939404  0.26322584    -0.27900
N122        N  0.05100005  0.60947299  0.29763580    -0.35800
C123        C  0.06106063  0.63445065  0.33030171     0.00400
C124        C  0.05591570  0.66150967  0.31574240     0.06400
C125        C  0.04180258  0.65088861  0.27323610    -0.06700
H126        H  0.07069951  0.63263494  0.36268291     0.07100
H127        H  0.03391369  0.66505713  0.25117263     0.08300
Cu128      Cu  0.05153212  0.56200128  0.29934701     0.44200
Cu129      Cu  0.02301156  0.58969591  0.20441651     0.42000
Cu130      Cu  0.02381747  0.50518965  0.20133896     0.43900
N131        N  0.04919153  0.51301645  0.29561081    -0.35300
N132        N  0.03870708  0.49172595  0.25987302    -0.29600
C133        C  0.03926985  0.46163593  0.26884093    -0.05700
C134        C  0.05048440  0.46415476  0.31247060     0.06600
C135        C  0.05678123  0.49720698  0.32819913     0.00300
H136        H  0.03191451  0.43957852  0.24543443     0.08000
H137        H  0.06540128  0.50851181  0.36127217     0.07100
N138        N  0.01299601  0.52710516  0.14717504    -0.36800
N139        N  0.01308858  0.55768553  0.14836009    -0.28900
C140        C  0.00888285  0.56602958  0.10699984    -0.04200
C141        C  0.00551747  0.53923084  0.07845966     0.04400
C142        C  0.00840247  0.51506204  0.10498340     0.02500
H143        H  0.00981043  0.59061599  0.09816117     0.07600
H144        H  0.00940656  0.49178983  0.09414943     0.06500
C145        C  0.05782872  0.93613466  0.48784488     0.79600
N146        N  0.02520727  0.93378703  0.48697691    -0.78700
C147        C  0.02443028  0.96470770  0.48667425     0.82000
N148        N  0.05656518  0.99811416  0.48736639    -0.78700
C149        C  0.08928185  0.00066379  0.48867779     0.82100
N150        N  0.08973219  0.96962963  0.48939619    -0.80400
C151        C  0.98904522  0.96205960  0.48530457     0.79600
N152        N  0.95688152  0.92866995  0.48256123    -0.78700
C153        C  0.92414246  0.92615784  0.48148059     0.82000
N154        N  0.92399199  0.95733261  0.48466925    -0.78700
C155        C  0.95578510  0.99075783  0.48598503     0.82100
N156        N  0.98836557  0.99306466  0.48644920    -0.80400
C157        C  0.78496830  0.78556068  0.47666231     0.79600
N158        N  0.76038696  0.78034488  0.44470045    -0.78700
C159        C  0.72458624  0.75312882  0.44799064     0.82000
N160        N  0.71355380  0.72971656  0.48225156    -0.78700
C161        C  0.73809773  0.73268221  0.51275490     0.82100
N162        N  0.77373204  0.76157810  0.51086786    -0.80400
C163        C  0.06380916  0.80613647  0.48855208     0.79600
N164        N  0.06163338  0.78916932  0.44939609    -0.78700
C165        C  0.06241501  0.75830385  0.44889525     0.82000
N166        N  0.06568523  0.74470342  0.48745969    -0.78700
C167        C  0.06685936  0.76069597  0.52667195     0.82100
N168        N  0.06607397  0.79159243  0.52727123    -0.80400
C169        C  0.18904092  0.07265427  0.49073559     0.79600
N170        N  0.15675093  0.03933670  0.49018324    -0.78700
C171        C  0.12402877  0.03673736  0.48828361     0.82000
N172        N  0.12355242  0.06767338  0.48568403    -0.78700
C173        C  0.15545302  0.10107964  0.48487493     0.82100
N174        N  0.18815076  0.10350320  0.48732912    -0.80400
C175        C  0.12057980  0.16263544  0.48099023     0.79600
N176        N  0.12156325  0.13179994  0.48233404    -0.78700
C177        C  0.15433013  0.13431582  0.48197464     0.82000
N178        N  0.18607428  0.16778824  0.47981121    -0.78700
C179        C  0.18515385  0.19854991  0.47876437     0.82100
N180        N  0.15252097  0.19598035  0.47948038    -0.80400
C181        C  0.05224771  0.18921599  0.48094128     0.79600
N182        N  0.02021502  0.15575919  0.48121223    -0.78700
C183        C  0.02056218  0.12461894  0.48234293     0.82000
N184        N  0.05315858  0.12696225  0.48250649    -0.78700
C185        C  0.08530466  0.16018459  0.48124299     0.82100
N186        N  0.08471071  0.19122210  0.48023375    -0.80400
C187        C  0.05320376  0.32341168  0.47863225     0.79600
N188        N  0.05450893  0.34002462  0.43995450    -0.78700
C189        C  0.05644215  0.37237893  0.44089873     0.82000
N190        N  0.05606603  0.38741547  0.48023495    -0.78700
C191        C  0.05338664  0.37049522  0.51874014     0.82100
N192        N  0.05234836  0.33862512  0.51796185    -0.80400
C193        C  0.32735784  0.07948133  0.48600983     0.79600
N194        N  0.33666978  0.06531385  0.51979940    -0.78700
C195        C  0.36666306  0.06298246  0.51672665     0.82000
N196        N  0.38678998  0.07390045  0.47928121    -0.78700
C197        C  0.37795614  0.08793586  0.44534345     0.82100
N198        N  0.34816526  0.09072255  0.44857824    -0.80400
C199        C  0.92107581  0.05238156  0.47907663     0.79600
N200        N  0.92207010  0.02158273  0.48170566    -0.78700
C201        C  0.95475518  0.02410411  0.48473021     0.82000
N202        N  0.98657545  0.05761598  0.48504751    -0.78700
C203        C  0.98593146  0.08852229  0.48308331     0.82100
N204        N  0.95318632  0.08578725  0.48079401    -0.80400
C205        C  0.78218974  0.04352132  0.47824870     0.79600
N206        N  0.77201329  0.05548535  0.44288378    -0.78700
C207        C  0.74172512  0.05739653  0.44500821     0.82000
N208        N  0.72251304  0.04871826  0.48313979    -0.78700
C209        C  0.73266842  0.03740396  0.51875183     0.82100
N210        N  0.76237541  0.03455557  0.51626938    -0.80400
C211        C  0.31471515  0.34432277  0.47314361     0.79600
N212        N  0.33806585  0.35781875  0.50852355    -0.78700
C213        C  0.36650977  0.39338636  0.50987187     0.82000
N214        N  0.37069010  0.41594854  0.47652021    -0.78700
C215        C  0.34754159  0.40285769  0.44114236     0.82100
N216        N  0.31967902  0.36701375  0.43933661    -0.80400
C217        C  0.88519488  0.04946325  0.47603677    -0.06800
C218        C  0.85424736  0.01968435  0.49624938    -0.17900
C219        C  0.82012773  0.01629932  0.49631143     0.10400
C220        C  0.81660737  0.04374011  0.47660529    -0.06700
C221        C  0.84720169  0.07295604  0.45544353    -0.17900
C222        C  0.88102804  0.07587243  0.45432713     0.10500
S223        S  0.78201634  0.97565417  0.52070896    -0.32900
S224        S  0.91704062  0.11320991  0.42297347    -0.32900
H225        H  0.92914611  0.09192601  0.40361020     0.28500
H226        H  0.75569500  0.97186429  0.48991430     0.28500
H227        H  0.85659273  0.99879769  0.51236968     0.19100
H228        H  0.84482288  0.09392976  0.43960440     0.19100
C229        C  0.05346215  0.28940683  0.47843526    -0.06800
C230        C  0.02855088  0.26049734  0.50562911    -0.17900
C231        C  0.02772346  0.22778857  0.50749980     0.10400
C232        C  0.05201354  0.22331356  0.48100273    -0.06700
C233        C  0.07709057  0.25236650  0.45398376    -0.17900
C234        C  0.07834045  0.28533316  0.45273158     0.10500
S235        S  0.99625219  0.19374204  0.54600818    -0.32900
S236        S  0.11350502  0.32165251  0.41939549    -0.32900
H237        H  0.12141246  0.35008538  0.44947738     0.28500
H238        H  0.02080836  0.18398609  0.56016244     0.28500
H239        H  0.00971656  0.26353732  0.52595236     0.19100
H240        H  0.09612588  0.24949218  0.43386952     0.19100
C241        C  0.21938765  0.23463593  0.47802103    -0.06800
C242        C  0.23486401  0.24967583  0.43698992    -0.17900
C243        C  0.26673819  0.28478059  0.43421338     0.10400
C244        C  0.28279825  0.30592620  0.47339571    -0.06700
C245        C  0.26731814  0.29028349  0.51449895    -0.17900
C246        C  0.23611278  0.25482358  0.51723626     0.10500
S247        S  0.28607658  0.30002105  0.37997471    -0.32900
S248        S  0.21841758  0.23747623  0.57163860    -0.32900
H249        H  0.20243487  0.20011737  0.56132524     0.28500
H250        H  0.32274781  0.31656772  0.39441091     0.28500
H251        H  0.22216349  0.23380502  0.40693133     0.19100
H252        H  0.27925171  0.30594501  0.54485805     0.19100
C253        C  0.22494998  0.07528537  0.49275420    -0.06800
C254        C  0.25588204  0.10503587  0.47240318    -0.17900
C255        C  0.28980411  0.10791771  0.47104836     0.10400
C256        C  0.29311048  0.07979252  0.48904058    -0.06700
C257        C  0.26259893  0.05071895  0.51063598    -0.17900
C258        C  0.22912217  0.04850905  0.51349706     0.10500
S259        S  0.32810075  0.14901989  0.44774644    -0.32900
S260        S  0.19364516  0.01165618  0.54597140    -0.32900
H261        H  0.18250652  0.03346637  0.56618021     0.28500
H262        H  0.35408283  0.15202257  0.47852601     0.28500
H263        H  0.25372540  0.12637996  0.45728672     0.19100
H264        H  0.26479199  0.02935547  0.52565410     0.19100
C265        C  0.88885436  0.88981362  0.47768812    -0.06800
C266        C  0.88733348  0.85815647  0.49197459    -0.17900
C267        C  0.85427538  0.82353206  0.49113778     0.10400
C268        C  0.82151963  0.82038722  0.47704818    -0.06700
C269        C  0.82323160  0.85181421  0.46212640    -0.17900
C270        C  0.85619479  0.88594050  0.46123469     0.10500
S271        S  0.85609926  0.78452018  0.50675841    -0.32900
S272        S  0.85416210  0.92256714  0.43660156    -0.32900
H273        H  0.88613779  0.93545090  0.41142090     0.28500
H274        H  0.82976288  0.76024415  0.47539008     0.28500
H275        H  0.91204904  0.86027912  0.50388634     0.19100
H276        H  0.79849042  0.84985605  0.45058094     0.19100
C277        C  0.06318577  0.83988403  0.48866955    -0.06800
C278        C  0.03834706  0.84136759  0.46021784    -0.17900
C279        C  0.03632188  0.87246846  0.45873447     0.10400
C280        C  0.05898783  0.90269673  0.48718770    -0.06700
C281        C  0.08411949  0.90138944  0.51530084    -0.17900
C282        C  0.08681783  0.87066016  0.51594535     0.10500
S283        S  0.00567965  0.87247389  0.41819839    -0.32900
S284        S  0.12227502  0.87338402  0.55048249    -0.32900
H285        H  0.13169001  0.85492885  0.52023143     0.28500
H286        H  0.02961323  0.90948630  0.40669409     0.28500
H287        H  0.02051113  0.81816849  0.43863295     0.19100
H288        H  0.10211959  0.92469849  0.53667159     0.19100
C289        C  0.06129120  0.69285516  0.34225760    -0.06800
C290        C  0.03178720  0.69755600  0.34667551    -0.17900
C291        C  0.03259897  0.72151485  0.37888425     0.10400
C292        C  0.06346042  0.74100164  0.40729492    -0.06700
C293        C  0.09394920  0.73830815  0.40055375    -0.17900
C294        C  0.09342898  0.71494786  0.36799635     0.10500
S295        S  0.99183009  0.72247641  0.38594161    -0.32900
S296        S  0.13429447  0.71390977  0.36172771    -0.32900
H297        H  0.12881846  0.70452296  0.31639655     0.28500
H298        H  0.01092073  0.76082088  0.39072248     0.28500
H299        H  0.00705157  0.68073926  0.32698928     0.19100
H300        H  0.11784727  0.75347939  0.42204804     0.19100
C301        C  0.05968033  0.39231181  0.40024333    -0.06800
C302        C  0.02945495  0.37752930  0.37124025    -0.17900
C303        C  0.02623569  0.39984606  0.34070448     0.10400
C304        C  0.05424436  0.43761582  0.33855877    -0.06700
C305        C  0.08579665  0.45141944  0.36516108    -0.17900
C306        C  0.08894394  0.42915712  0.39551534     0.10500
S307        S  0.98400210  0.37936761  0.30932122    -0.32900
S308        S  0.13030542  0.44965487  0.42881944    -0.32900
H309        H  0.12830297  0.41671053  0.43692608     0.28500
H310        H  0.97926831  0.40868803  0.31636997     0.28500
H311        H  0.00674164  0.34933158  0.37508894     0.19100
H312        H  0.10779838  0.48010961  0.36314645     0.19100
C313        C  0.01425725  0.54359908  0.93689239    -0.06800
C314        C  0.98737192  0.51091884  0.95713952    -0.17900
C315        C  0.98289629  0.50902549  0.00309725     0.10400
C316        C  0.00627178  0.54028217  0.02969145    -0.06700
C317        C  0.03296756  0.57301426  0.00945804    -0.17900
C318        C  0.03765763  0.57486638  0.96361148     0.10500
S319        S  0.94593056  0.46649662  0.02550069    -0.32900
S320        S  0.07578941  0.61703285  0.94199000    -0.32900
H321        H  0.08516253  0.59987210  0.90974939     0.28500
H322        H  0.93827978  0.48276644  0.06073953     0.28500
H323        H  0.96909412  0.48693239  0.93690838     0.19100
H324        H  0.05149907  0.59689357  0.02970901     0.19100
C325        C  0.05939165  0.43807808  0.62617974    -0.06800
C326        C  0.02876029  0.40189405  0.62253407    -0.17900
C327        C  0.02717888  0.37766221  0.59008381     0.10400
C328        C  0.05674639  0.38997107  0.56051602    -0.06700
C329        C  0.08841546  0.42513765  0.56653632    -0.17900
C330        C  0.09032112  0.44899902  0.59942976     0.10500
S331        S  0.98509337  0.33327109  0.58453753    -0.32900
S332        S  0.13271341  0.49326767  0.60493263    -0.32900
H333        H  0.12900030  0.49765947  0.65043026     0.28500
H334        H  0.00233843  0.31422689  0.57585536     0.28500
H335        H  0.00495636  0.39321819  0.64304187     0.19100
H336        H  0.11139278  0.43459019  0.54428130     0.19100
C337        C  0.07111161  0.69625739  0.62849367    -0.06800
C338        C  0.04329461  0.70369256  0.62934001    -0.17900
C339        C  0.04313383  0.72798762  0.59922274     0.10400
C340        C  0.07110998  0.74486175  0.56730621    -0.06700
C341        C  0.10044948  0.73979343  0.56902479    -0.17900
C342        C  0.10109125  0.71625260  0.59966879     0.10500
S343        S  0.00431709  0.73273804  0.59942626    -0.32900
S344        S  0.14058601  0.71246473  0.59963572    -0.32900
H345        H  0.13885358  0.70441592  0.64490285     0.28500
H346        H  0.02573264  0.77113940  0.59575345     0.28500
H347        H  0.02035380  0.68878359  0.65162250     0.19100
H348        H  0.12228322  0.75309274  0.54497023     0.19100
C349        C  0.72499407  0.70553242  0.54883150    -0.06800
C350        C  0.73982743  0.71715975  0.59168036    -0.17900
C351        C  0.72441835  0.69366521  0.62792463     0.10400
C352        C  0.69272052  0.65797077  0.62163870    -0.06700
C353        C  0.67948767  0.64575883  0.57836529    -0.17900
C354        C  0.69556073  0.66863738  0.54210398     0.10500
S355        S  0.74682048  0.71079162  0.68097830    -0.32900
S356        S  0.67710610  0.64857842  0.48817480    -0.32900
H357        H  0.71116749  0.66831785  0.46655531     0.28500
H358        H  0.73764226  0.67641609  0.69674946     0.28500
H359        H  0.76296533  0.74501657  0.59724685     0.19100
H360        H  0.65567563  0.61837520  0.57251745     0.19100
C361        C  0.44163487  0.43790251  0.62020290    -0.06800
C362        C  0.45485479  0.44575208  0.57664514    -0.17900
C363        C  0.43117528  0.43036401  0.54023328     0.10400
C364        C  0.39295627  0.40739270  0.54703392    -0.06700
C365        C  0.37963688  0.39848240  0.59035897    -0.17900
C366        C  0.40349837  0.41302641  0.62693079     0.10500
S367        S  0.45169823  0.44041356  0.48606882    -0.32900
S368        S  0.38344846  0.39776512  0.68084049    -0.32900
H369        H  0.41363705  0.39823308  0.69906421     0.28500
H370        H  0.42639809  0.40550962  0.46770949     0.28500
H371        H  0.48391133  0.46449252  0.57059255     0.19100
H372        H  0.35036217  0.38028028  0.59578572     0.19100
C373        C  0.53161091  0.60446112  0.92801562    -0.06800
C374        C  0.55977041  0.61232488  0.95812405    -0.17900
C375        C  0.55524517  0.61412304  0.00361854     0.10400
C376        C  0.52215404  0.60900226  0.01965557    -0.06700
C377        C  0.49411724  0.60158002  0.98963112    -0.17900
C378        C  0.49864277  0.59974355  0.94402862     0.10500
S379        S  0.59167689  0.62032797  0.03938608    -0.32900
S380        S  0.46203597  0.59295287  0.90816315    -0.32900
H381        H  0.48510180  0.61420639  0.87336077     0.28500
H382        H  0.56818916  0.59627460  0.07218021     0.28500
H383        H  0.58487409  0.61530664  0.94634305     0.19100
H384        H  0.46886947  0.59809373  0.00173517     0.19100
C385        C  0.38821145  0.48020479  0.33693493    -0.06800
C386        C  0.37470603  0.48693737  0.37561875    -0.17900
C387        C  0.35871840  0.46093385  0.40893009     0.10400
C388        C  0.35543778  0.42697270  0.40340222    -0.06700
C389        C  0.36636778  0.41895988  0.36354577    -0.17900
C390        C  0.38357279  0.44551280  0.33069068     0.10500
S391        S  0.34461196  0.47336255  0.45859851    -0.32900
S392        S  0.40301214  0.43494439  0.28485044    -0.32900
H393        H  0.43715805  0.46861556  0.28717419     0.28500
H394        H  0.31720942  0.43731951  0.47030920     0.28500
H395        H  0.37792246  0.51332966  0.38073237     0.19100
H396        H  0.36457784  0.39312903  0.35971980     0.19100
C397        C  0.64385417  0.72245625  0.34626184    -0.06800
C398        C  0.63724555  0.72958092  0.38958955    -0.17900
C399        C  0.66384292  0.74170313  0.42289743     0.10400
C400        C  0.69821810  0.74715815  0.41299240    -0.06700
C401        C  0.70616101  0.74300978  0.36922559    -0.17900
C402        C  0.67931766  0.73034301  0.33567060     0.10500
S403        S  0.65201789  0.74918207  0.47747181    -0.32900
S404        S  0.69010774  0.72095281  0.28142654    -0.32900
H405        H  0.72764515  0.73550638  0.28930027     0.28500
H406        H  0.68801103  0.77694855  0.49016343     0.28500
H407        H  0.61063629  0.72472828  0.39801963     0.19100
H408        H  0.73274299  0.74731863  0.36204735     0.19100
C409        C  0.37779582  0.04822724  0.55288367    -0.06800
C410        C  0.38202604  0.01905688  0.54287029    -0.17900
C411        C  0.39905448  0.00820509  0.57271318     0.10400
C412        C  0.41421604  0.02824369  0.61278089    -0.06700
C413        C  0.40805292  0.05608204  0.62381782    -0.17900
C414        C  0.38963859  0.06588974  0.59461158     0.10500
S415        S  0.39985174  0.96824561  0.55777261    -0.32900
S416        S  0.38566058  0.10376706  0.61022097    -0.32900
H417        H  0.34767452  0.08443992  0.60147319     0.28500
H418        H  0.39795393  0.95659741  0.60154586     0.28500
H419        H  0.37241405  0.00492814  0.51117003     0.19100
H420        H  0.41916866  0.07157430  0.65442967     0.19100
C421        C  0.71037810  0.02761813  0.55901770    -0.06800
C422        C  0.67599410  0.99444627  0.55852412    -0.17900
C423        C  0.64917143  0.98766430  0.58981153     0.10400
C424        C  0.65691186  0.01475975  0.62215818    -0.06700
C425        C  0.69230100  0.04671695  0.62465989    -0.17900
C426        C  0.71902883  0.05351925  0.59332145     0.10500
S427        S  0.60494620  0.94476748  0.58763678    -0.32900
S428        S  0.76205232  0.09740101  0.59599586    -0.32900
H429        H  0.78341112  0.08536560  0.57708574     0.28500
H430        H  0.61256674  0.92905416  0.55171605     0.28500
H431        H  0.66952136  0.97473739  0.53201120     0.19100
H432        H  0.69841308  0.06767494  0.64936491     0.19100
C433        C  0.55762840  0.06796328  0.02914115    -0.06800
C434        C  0.54718777  0.08759448  0.00314051    -0.17900
C435        C  0.54534336  0.08437306  0.95683614     0.10400
C436        C  0.55308056  0.06010179  0.93549153    -0.06700
C437        C  0.56346034  0.04042838  0.96147590    -0.17900
C438        C  0.56531858  0.04364826  0.00776545     0.10500
S439        S  0.53542231  0.11391163  0.92708816    -0.32900
S440        S  0.57533437  0.01412008  0.03737965    -0.32900
H441        H  0.55089071  0.00714193  0.07216304     0.28500
H442        H  0.55994090  0.12088784  0.89239612     0.28500
H443        H  0.54172089  0.10670767  0.01890908     0.19100
H444        H  0.56897461  0.02135921  0.94568000     0.19100
C445        C  0.45602875  0.11324584  0.34368676    -0.06800
C446        C  0.42159707  0.08000662  0.34173867    -0.17900
C447        C  0.39401442  0.07239850  0.37219429     0.10400
C448        C  0.40065870  0.09863696  0.40522046    -0.06700
C449        C  0.43413682  0.13281853  0.40536123    -0.17900
C450        C  0.46169528  0.14052445  0.37475198     0.10500
S451        S  0.35239714  0.02730490  0.37014263    -0.32900
S452        S  0.50376606  0.18523444  0.37778515    -0.32900
H453        H  0.51235867  0.18670593  0.33266231     0.28500
H454        H  0.32951494  0.03781764  0.38826403     0.28500
H455        H  0.41691279  0.05887093  0.31810661     0.19100
H456        H  0.43955331  0.15296104  0.43087314     0.19100
C457        C  0.73103042  0.07200754  0.40823044    -0.06800
C458        C  0.73180921  0.10435084  0.41608090    -0.17900
C459        C  0.71569973  0.11625843  0.38630772     0.10400
C460        C  0.69650663  0.09440744  0.34863042    -0.06700
C461        C  0.69760520  0.06310518  0.33949469    -0.17900
C462        C  0.71498980  0.05196656  0.36858609     0.10500
S463        S  0.72120731  0.15983829  0.39812732    -0.32900
S464        S  0.71257510  0.01005319  0.35565512    -0.32900
H465        H  0.74930297  0.02389833  0.36740070     0.28500
H466        H  0.72171924  0.16905344  0.35349546     0.28500
H467        H  0.74461809  0.12019964  0.44613004     0.19100
H468        H  0.68337671  0.04619347  0.31060543     0.19100
loop_ 
_geom_bond_atom_site_label_1 
_geom_bond_atom_site_label_2 
_geom_bond_distance 
_geom_bond_site_symmetry_2 
_ccdc_geom_bond_type 
N1            N2   1.322       .  A
N1            C5   1.348       .  A
N1           Cu9   2.081       .  S
N2            C3   1.345       .  A
N2           Cu8   2.085       .  S
C3            C4   1.388       .  A
C3            H6   1.083       .  S
C4            C5   1.387       .  A
C4          C460   1.488       .  S
C5            H7   1.083       .  S
Cu8          N11   2.085       .  S
Cu9          N19   2.082       .  S
Cu10         N12   2.083       .  S
Cu10         N18   2.083       .  S
N11          N12   1.323       .  A
N11          C15   1.346       .  A
N12          C13   1.347       .  A
C13          C14   1.385       .  A
C13          H16   1.083       .  S
C14          C15   1.386       .  A
C14         C445   1.483       .  S
C15          H17   1.083       .  S
N18          N19   1.323       .  A
N18          C22   1.347       .  A
N19          C20   1.346       .  A
C20          C21   1.387       .  A
C20          H23   1.080       .  S
C21          C22   1.387       .  A
C21         C433   1.488       .  S
C22          H24   1.081       .  S
N25          N26   1.321       .  A
N25          C29   1.348       .  A
N25         Cu33   2.086       .  S
N26          C27   1.343       .  A
N26         Cu32   2.068       .  S
C27          C28   1.386       .  A
C27          H30   1.079       .  S
C28          C29   1.390       .  A
C28         C412   1.488       .  S
C29          H31   1.083       .  S
Cu32         N35   2.068       .  S
Cu33         N43   2.087       .  S
Cu34         N36   2.082       .  S
Cu34         N42   2.083       .  S
N35          N36   1.321       .  A
N35          C39   1.342       .  A
N36          C37   1.348       .  A
C37          C38   1.387       .  A
C37          H40   1.083       .  S
C38          C39   1.383       .  A
C38         C424   1.479       .  S
C39          H41   1.082       .  S
N42          N43   1.324       .  A
N42          C46   1.346       .  A
N43          C44   1.347       .  A
C44          C45   1.387       .  A
C44          H47   1.080       .  S
C45          C46   1.385       .  A
C45         C436   1.487       .  S
C46          H48   1.081       .  S
N49          N50   1.317       .  A
N49          C53   1.347       .  A
N49         Cu57   2.068       .  S
N50          C51   1.337       .  A
N50         Cu56   2.046       .  S
C51          C52   1.383       .  A
C51          H54   1.084       .  S
C52          C53   1.391       .  A
C52         C397   1.485       .  S
C53          H55   1.081       .  S
Cu56         N59   2.046       .  S
Cu57         N67   2.070       .  S
Cu58         N60   2.078       .  S
Cu58         N66   2.080       .  S
N59          N60   1.320       .  A
N59          C63   1.337       .  A
N60          C61   1.349       .  A
C61          C62   1.390       .  A
C61          H64   1.080       .  S
C62          C63   1.378       .  A
C62         C385   1.478       .  S
C63          H65   1.081       .  S
N66          N67   1.325       .  A
N66          C70   1.345       .  A
N67          C68   1.342       .  A
C68          C69   1.380       .  A
C68          H71   1.081       .  S
C69          C70   1.382       .  A
C69         C376   1.472       .  S
C70          H72   1.082       .  S
N73          N74   1.320       .  A
N73          C77   1.343       .  A
N73         Cu81   2.062       .  S
N74          C75   1.342       .  A
N74         Cu80   2.068       .  S
C75          C76   1.387       .  A
C75          H78   1.082       .  S
C76          C77   1.386       .  A
C76         C361   1.483       .  S
C77          H79   1.081       .  S
Cu80         N83   2.069       .  S
Cu81         N91   2.062       .  S
Cu82         N84   2.074       .  S
Cu82         N90   2.074       .  S
N83          N84   1.321       .  A
N83          C87   1.343       .  A
N84          C85   1.346       .  A
C85          C86   1.388       .  A
C85          H88   1.081       .  S
C86          C87   1.387       .  A
C86         C352   1.486       .  S
C87          H89   1.082       .  S
N90          N91   1.321       .  A
N90          C94   1.344       .  A
N91          C92   1.343       .  A
C92          C93   1.383       .  A
C92          H95   1.081       .  S
C93          C94   1.385       .  A
C93         C373   1.477       .  S
C94          H96   1.081       .  S
N97          N98   1.322       .  A
N97         C101   1.348       .  A
N97        Cu105   2.076       .  S
N98          C99   1.341       .  A
N98        Cu104   2.071       .  S
C99         C100   1.382       .  A
C99         H102   1.084       .  S
C100        C101   1.385       .  A
C100        C325   1.478       .  S
C101        H103   1.083       .  S
Cu104       N107   2.071       .  S
Cu105       N115   2.076       .  S
Cu106       N108   2.066       .  S
Cu106       N114   2.067       .  S
N107        N108   1.321       .  A
N107        C111   1.343       .  A
N108        C109   1.346       .  A
C109        C110   1.383       .  A
C109        H112   1.083       .  S
C110        C111   1.385       .  A
C110        C337   1.478       .  S
C111        H113   1.082       .  S
N114        N115   1.323       .  A
N114        C118   1.343       .  A
N115        C116   1.345       .  A
C116        C117   1.383       .  A
C116        H119   1.081       .  S
C117        C118   1.382       .  A
C117        C313   1.476       .  S
C118        H120   1.080       .  S
N121        N122   1.321       .  A
N121        C125   1.347       .  A
N121       Cu129   2.067       .  S
N122        C123   1.342       .  A
N122       Cu128   2.071       .  S
C123        C124   1.383       .  A
C123        H126   1.083       .  S
C124        C125   1.383       .  A
C124        C289   1.475       .  S
C125        H127   1.083       .  S
Cu128       N131   2.072       .  S
Cu129       N139   2.068       .  S
Cu130       N132   2.075       .  S
Cu130       N138   2.076       .  S
N131        N132   1.321       .  A
N131        C135   1.343       .  A
N132        C133   1.348       .  A
C133        C134   1.386       .  A
C133        H136   1.082       .  S
C134        C135   1.383       .  A
C134        C304   1.480       .  S
C135        H137   1.080       .  S
N138        N139   1.323       .  A
N138        C142   1.345       .  A
N139        C140   1.343       .  A
C140        C141   1.381       .  A
C140        H143   1.081       .  S
C141        C142   1.383       .  A
C141        C316   1.474       .  S
C142        H144   1.080       .  S
C145        N146   1.360       .  A
C145        N150   1.357       .  A
C145        C280   1.477       .  S
N146        C147   1.359       .  A
C147        N148   1.360       .  A
C147        C151   1.473   1_455  S
N148        C149   1.360   1_565  A
C149        N150   1.356   1_545  A
C149        C171   1.469       .  S
C151        N152   1.361       .  A
C151        N156   1.360       .  A
N152        C153   1.361       .  A
C153        N154   1.357       .  A
C153        C265   1.489       .  S
N154        C155   1.354       .  A
C155        N156   1.359       .  A
C155        C201   1.471   1_565  S
C157        N158   1.359       .  A
C157        N162   1.364       .  A
C157        C268   1.481       .  S
N158        C159   1.351       .  A
C159        N160   1.352       .  A
C159        C400   1.468       .  S
N160        C161   1.356       .  A
C161        N162   1.364       .  A
C161        C349   1.483       .  S
C163        N164   1.362       .  A
C163        N168   1.363       .  A
C163        C277   1.477       .  S
N164        C165   1.356       .  A
C165        N166   1.352       .  A
C165        C292   1.470       .  S
N166        C167   1.353       .  A
C167        N168   1.358       .  A
C167        C340   1.471       .  S
C169        N170   1.361       .  A
C169        N174   1.363       .  A
C169        C253   1.496       .  S
N170        C171   1.359       .  A
C171        N172   1.355       .  A
N172        C173   1.356       .  A
C173        N174   1.363       .  A
C173        C177   1.471       .  S
C175        N176   1.361       .  A
C175        N180   1.356       .  A
C175        C185   1.472       .  S
N176        C177   1.362       .  A
C177        N178   1.356       .  A
N178        C179   1.356       .  A
C179        N180   1.355       .  A
C179        C241   1.460       .  S
C181        N182   1.359       .  A
C181        N186   1.360       .  A
C181        C232   1.483       .  S
N182        C183   1.359       .  A
C183        N184   1.358       .  A
C183        C203   1.468   1_455  S
N184        C185   1.357       .  A
C185        N186   1.360       .  A
C187        N188   1.364       .  A
C187        N192   1.363       .  A
C187        C229   1.480       .  S
N188        C189   1.359       .  A
C189        N190   1.353       .  A
C189        C301   1.472       .  S
N190        C191   1.353       .  A
C191        N192   1.357       .  A
C191        C328   1.473       .  S
C193        N194   1.364       .  A
C193        N198   1.366       .  A
C193        C256   1.493       .  S
N194        C195   1.359       .  A
C195        N196   1.353       .  A
C195        C409   1.477       .  S
N196        C197   1.353       .  A
C197        N198   1.362       .  A
C197        C448   1.474       .  S
C199        N200   1.362       .  A
C199        N204   1.360       .  A
C199        C217   1.491       .  S
N200        C201   1.361       .  A
C201        N202   1.356       .  A
N202        C203   1.357       .  A
C203        N204   1.358       .  A
C205        N206   1.364       .  A
C205        N210   1.363       .  A
C205        C220   1.485       .  S
N206        C207   1.359       .  A
C207        N208   1.354       .  A
C207        C457   1.476       .  S
N208        C209   1.354       .  A
C209        N210   1.359       .  A
C209        C421   1.470       .  S
C211        N212   1.359       .  A
C211        N216   1.360       .  A
C211        C244   1.479       .  S
N212        C213   1.355       .  A
C213        N214   1.354       .  A
C213        C364   1.472       .  S
N214        C215   1.354       .  A
C215        N216   1.356       .  A
C215        C388   1.466       .  S
C217        C218   1.407       .  A
C217        C222   1.418       .  A
C218        C219   1.403       .  A
C218        H227   1.084   1_545  S
C219        C220   1.415       .  A
C219        S223   1.803   1_545  S
C220        C221   1.403       .  A
C221        C222   1.400       .  A
C221        H228   1.084       .  S
C222        S224   1.803       .  S
S223        H226   1.407       .  S
S224        H225   1.407       .  S
C229        C230   1.403       .  A
C229        C234   1.414       .  A
C230        C231   1.400       .  A
C230        H239   1.084       .  S
C231        C232   1.416       .  A
C231        S235   1.803   1_455  S
C232        C233   1.405       .  A
C233        C234   1.401       .  A
C233        H240   1.084       .  S
C234        S236   1.803       .  S
S235        H238   1.407   1_655  S
S236        H237   1.407       .  S
C241        C242   1.399       .  A
C241        C246   1.407       .  A
C242        C243   1.398       .  A
C242        H251   1.084       .  S
C243        C244   1.417       .  A
C243        S247   1.803       .  S
C244        C245   1.407       .  A
C245        C246   1.395       .  A
C245        H252   1.083       .  S
C246        S248   1.805       .  S
S247        H250   1.407       .  S
S248        H249   1.404       .  S
C253        C254   1.408       .  A
C253        C258   1.419       .  A
C254        C255   1.405       .  A
C254        H263   1.084       .  S
C255        C256   1.416       .  A
C255        S259   1.802       .  S
C256        C257   1.405       .  A
C257        C258   1.402       .  A
C257        H264   1.084       .  S
C258        S260   1.804       .  S
S259        H262   1.407       .  S
S260        H261   1.408       .  S
C265        C266   1.410       .  A
C265        C270   1.418       .  A
C266        C267   1.404       .  A
C266        H275   1.083       .  S
C267        C268   1.413       .  A
C267        S271   1.802       .  S
C268        C269   1.403       .  A
C269        C270   1.392       .  A
C269        H276   1.084       .  S
C270        S272   1.805       .  S
S271        H274   1.407       .  S
S272        H273   1.408       .  S
C277        C278   1.404       .  A
C277        C282   1.414       .  A
C278        C279   1.398       .  A
C278        H287   1.084       .  S
C279        C280   1.413       .  A
C279        S283   1.803       .  S
C280        C281   1.404       .  A
C281        C282   1.399       .  A
C281        H288   1.084       .  S
C282        S284   1.803       .  S
S283        H286   1.407       .  S
S284        H285   1.407       .  S
C289        C290   1.404       .  A
C289        C294   1.412       .  A
C290        C291   1.402       .  A
C290        H299   1.083       .  S
C291        C292   1.411       .  A
C291        S295   1.800   1_455  S
C292        C293   1.401       .  A
C293        C294   1.395       .  A
C293        H300   1.084       .  S
C294        S296   1.804       .  S
S295        H298   1.404   1_655  S
S296        H297   1.407       .  S
C301        C302   1.402       .  A
C301        C306   1.410       .  A
C302        C303   1.404       .  A
C302        H311   1.084       .  S
C303        C304   1.416       .  A
C303        S307   1.801   1_455  S
C304        C305   1.403       .  A
C305        C306   1.397       .  A
C305        H312   1.084       .  S
C306        S308   1.805       .  S
S307        H310   1.407       .  S
S308        H309   1.407       .  S
C313        C314   1.403   1_455  A
C313        C318   1.414       .  A
C314        C315   1.399   1_556  A
C314        H323   1.083       .  S
C315        C316   1.412   1_655  A
C315        S319   1.803       .  S
C316        C317   1.402       .  A
C317        C318   1.397   1_554  A
C317        H324   1.083       .  S
C318        S320   1.803       .  S
S319        H322   1.407       .  S
S320        H321   1.407       .  S
C325        C326   1.404       .  A
C325        C330   1.412       .  A
C326        C327   1.403       .  A
C326        H335   1.084       .  S
C327        C328   1.412       .  A
C327        S331   1.801   1_455  S
C328        C329   1.402       .  A
C329        C330   1.396       .  A
C329        H336   1.084       .  S
C330        S332   1.804       .  S
S331        H334   1.404   1_655  S
S332        H333   1.407       .  S
C337        C338   1.405       .  A
C337        C342   1.412       .  A
C338        C339   1.402       .  A
C338        H347   1.083       .  S
C339        C340   1.411       .  A
C339        S343   1.800       .  S
C340        C341   1.402       .  A
C341        C342   1.396       .  A
C341        H348   1.084       .  S
C342        S344   1.803       .  S
S343        H346   1.405       .  S
S344        H345   1.407       .  S
C349        C350   1.405       .  A
C349        C354   1.416       .  A
C350        C351   1.404       .  A
C350        H359   1.083       .  S
C351        C352   1.416       .  A
C351        S355   1.802       .  S
C352        C353   1.404       .  A
C353        C354   1.395       .  A
C353        H360   1.082       .  S
C354        S356   1.805       .  S
S355        H358   1.407       .  S
S356        H357   1.407       .  S
C361        C362   1.406       .  A
C361        C366   1.416       .  A
C362        C363   1.394       .  A
C362        H371   1.083       .  S
C363        C364   1.411       .  A
C363        S367   1.805       .  S
C364        C365   1.402       .  A
C365        C366   1.400       .  A
C365        H372   1.084       .  S
C366        S368   1.802       .  S
S367        H370   1.407       .  S
S368        H369   1.407       .  S
C373        C374   1.403       .  A
C373        C378   1.414       .  A
C374        C375   1.396   1_556  A
C374        H383   1.084       .  S
C375        C376   1.413       .  A
C375        S379   1.804       .  S
C376        C377   1.402   1_554  A
C377        C378   1.399       .  A
C377        H384   1.084   1_556  S
C378        S380   1.803       .  S
S379        H382   1.407       .  S
S380        H381   1.407       .  S
C385        C386   1.404       .  A
C385        C390   1.415       .  A
C386        C387   1.394       .  A
C386        H395   1.084       .  S
C387        C388   1.408       .  A
C387        S391   1.805       .  S
C388        C389   1.402       .  A
C389        C390   1.401       .  A
C389        H396   1.084       .  S
C390        S392   1.801       .  S
S391        H394   1.406       .  S
S392        H393   1.407       .  S
C397        C398   1.407       .  A
C397        C402   1.418       .  A
C398        C399   1.394       .  A
C398        H407   1.084       .  S
C399        C400   1.407       .  A
C399        S403   1.804       .  S
C400        C401   1.401       .  A
C401        C402   1.404       .  A
C401        H408   1.084       .  S
C402        S404   1.806       .  S
S403        H406   1.407       .  S
S404        H405   1.407       .  S
C409        C410   1.402       .  A
C409        C414   1.410       .  A
C410        C411   1.399       .  A
C410        H419   1.084       .  S
C411        C412   1.417       .  A
C411        S415   1.803   1_545  S
C412        C413   1.407       .  A
C413        C414   1.402       .  A
C413        H420   1.083       .  S
C414        S416   1.799       .  S
S415        H418   1.407       .  S
S416        H417   1.406       .  S
C421        C422   1.401   1_545  A
C421        C426   1.412       .  A
C422        C423   1.403       .  A
C422        H431   1.084       .  S
C423        C424   1.412   1_565  A
C423        S427   1.807       .  S
C424        C425   1.403       .  A
C425        C426   1.401       .  A
C425        H432   1.085       .  S
C426        S428   1.803       .  S
S427        H430   1.407       .  S
S428        H429   1.404       .  S
C433        C434   1.405       .  A
C433        C438   1.416       .  A
C434        C435   1.402   1_554  A
C434        H443   1.083       .  S
C435        C436   1.415       .  A
C435        S439   1.802       .  S
C436        C437   1.404       .  A
C437        C438   1.401   1_556  A
C437        H444   1.083       .  S
C438        S440   1.803       .  S
S439        H442   1.407       .  S
S440        H441   1.407       .  S
C445        C446   1.404       .  A
C445        C450   1.414       .  A
C446        C447   1.402       .  A
C446        H455   1.084       .  S
C447        C448   1.411       .  A
C447        S451   1.803       .  S
C448        C449   1.403       .  A
C449        C450   1.403       .  A
C449        H456   1.084       .  S
C450        S452   1.803       .  S
S451        H454   1.405       .  S
S452        H453   1.406       .  S
C457        C458   1.401       .  A
C457        C462   1.411       .  A
C458        C459   1.399       .  A
C458        H467   1.084       .  S
C459        C460   1.415       .  A
C459        S463   1.803       .  S
C460        C461   1.407       .  A
C461        C462   1.404       .  A
C461        H468   1.083       .  S
C462        S464   1.801       .  S
S463        H466   1.407       .  S
S464        H465   1.404       .  S
