geometry optimzed in LAMMPS
_audit_creation_date              2020-12-01 
_audit_creation_method            'lammps2cif' 
_symmetry_space_group_name_H-M    'P1' 
_symmetry_Int_Tables_number       1 
_symmetry_cell_setting            triclinic 
loop_ 
_symmetry_equiv_pos_as_xyz 
  x,y,z 
_cell_length_a                    106.33815488 
_cell_length_b                    106.38986416068992 
_cell_length_c                    106.20629443591525 
_cell_angle_alpha                 90.2506197911993 
_cell_angle_beta                  90.01013965145636 
_cell_angle_gamma                 89.75441368642893 
loop_ 
_atom_site_label 
_atom_site_type_symbol 
_atom_site_fract_x 
_atom_site_fract_y 
_atom_site_fract_z 
_atom_site_charge 
N1          N  0.77088122  0.19569063  0.44504028    -0.03000
C2          C  0.76670140  0.18599201  0.43752298    -0.00400
C3          C  0.76346801  0.17567430  0.44463949    -0.23300
C4          C  0.76568139  0.17876168  0.45691780    -0.23500
C5          C  0.77018238  0.19088902  0.45699098    -0.00500
H6          H  0.76030632  0.16668349  0.44117570     0.13300
H7          H  0.76456611  0.17267460  0.46493794     0.13300
N8          N  0.72491625  0.27275001  0.43753990    -0.03000
C9          C  0.72157216  0.28207256  0.42922635    -0.00400
C10         C  0.71337783  0.29033113  0.43516394    -0.23300
C11         C  0.71186703  0.28630553  0.44735635    -0.23500
C12         C  0.71892068  0.27546394  0.44869430    -0.00500
H13         H  0.70916107  0.29862673  0.43111919     0.13300
H14         H  0.70620696  0.29083655  0.45451688     0.13300
N15         N  0.71068282  0.24527629  0.54948739    -0.03000
C16         C  0.70126308  0.24649163  0.55833920    -0.00400
C17         C  0.69050299  0.25118253  0.55272645    -0.23300
C18         C  0.69298151  0.25254829  0.54020140    -0.23500
C19         C  0.70541403  0.24923891  0.53832639    -0.00500
H20         H  0.68169673  0.25340029  0.55729766     0.13300
H21         H  0.68651822  0.25612020  0.53322808     0.13300
N22         N  0.79957384  0.21296464  0.55458837    -0.03000
C23         C  0.80969139  0.21262687  0.56258746    -0.00400
C24         C  0.82025961  0.20812376  0.55646717    -0.23300
C25         C  0.81686742  0.20580077  0.54428984    -0.23500
C26         C  0.80424013  0.20866860  0.54333703    -0.00500
H27         H  0.82950687  0.20677824  0.56046589     0.13300
H28         H  0.82294282  0.20233598  0.53688544     0.13300
N29         N  0.71295110  0.23533450  0.94479925    -0.03000
C30         C  0.70300233  0.23736841  0.93693455    -0.00400
C31         C  0.69184839  0.23668579  0.94358548    -0.23300
C32         C  0.69489186  0.23387287  0.95581352    -0.23500
C33         C  0.70785372  0.23316371  0.95642715    -0.00500
H34         H  0.68246248  0.23735258  0.93975829     0.13300
H35         H  0.68833512  0.23208878  0.96334447     0.13300
N36         N  0.80328050  0.25579582  0.94370386    -0.03000
C37         C  0.81425770  0.25528694  0.93701889    -0.00400
C38         C  0.82425030  0.25790582  0.94497178    -0.23300
C39         C  0.81932376  0.26054172  0.95667018    -0.23500
C40         C  0.80645323  0.25915907  0.95573421    -0.00500
H41         H  0.83403102  0.25854846  0.94236839     0.13300
H42         H  0.82454831  0.26350600  0.96487894     0.13300
N43         N  0.74084053  0.20040847  0.04982357    -0.03000
C44         C  0.74123033  0.19045619  0.05802053    -0.00400
C45         C  0.73797963  0.17949836  0.05178801    -0.23300
C46         C  0.73584402  0.18251338  0.03946453    -0.23500
C47         C  0.73739053  0.19534085  0.03843413    -0.00500
H48         H  0.73725865  0.17021909  0.05581487     0.13300
H49         H  0.73306792  0.17608472  0.03209438     0.13300
N50         N  0.76534424  0.29082410  0.04540813    -0.03000
C51         C  0.76492570  0.30118983  0.05315304    -0.00400
C52         C  0.76561504  0.31201550  0.04603692    -0.23300
C53         C  0.76618263  0.30840846  0.03366045    -0.23500
C54         C  0.76635582  0.29542323  0.03342042    -0.00500
H55         H  0.76601271  0.32157223  0.04949953     0.13300
H56         H  0.76735317  0.31459768  0.02570972     0.13300
N57         N  0.79920082  0.93649080  0.27092399    -0.03000
C58         C  0.80793930  0.92714602  0.27258676    -0.00400
C59         C  0.81301326  0.92829092  0.28458776    -0.23300
C60         C  0.80786067  0.93881293  0.29009365    -0.23500
C61         C  0.79963803  0.94390867  0.28144163    -0.00500
H62         H  0.82013562  0.92235312  0.28876683     0.13300
H63         H  0.81047564  0.94278683  0.29908080     0.13300
N64         N  0.71961401  0.93913210  0.22071402    -0.03000
C65         C  0.70919749  0.93162074  0.21954230    -0.00400
C66         C  0.69941392  0.93847028  0.21436676    -0.23300
C67         C  0.70374301  0.95046361  0.21242611    -0.23500
C68         C  0.71615349  0.95068087  0.21628351    -0.00500
H69         H  0.69017793  0.93501466  0.21197321     0.13300
H70         H  0.69854774  0.95809317  0.20818100     0.13300
N71         N  0.77937293  0.04691931  0.28836263    -0.03000
C72         C  0.78240404  0.05602669  0.29707314    -0.00400
C73         C  0.78768697  0.05055844  0.30760519    -0.23300
C74         C  0.78833586  0.03792176  0.30538272    -0.23500
C75         C  0.78297869  0.03573484  0.29372467    -0.00500
H76         H  0.79079173  0.05530089  0.31604890     0.13300
H77         H  0.79201320  0.03096104  0.31179255     0.13300
N78         N  0.75365405  0.04535359  0.19751908    -0.03000
C79         C  0.75396371  0.05406177  0.18806565    -0.00400
C80         C  0.75273680  0.04813855  0.17650602    -0.23300
C81         C  0.75130585  0.03555053  0.17876664    -0.23500
C82         C  0.75196163  0.03398056  0.19164082    -0.00500
H83         H  0.75224793  0.05261988  0.16741077     0.13300
H84         H  0.74952248  0.02835080  0.17178229     0.13300
O85         O  0.74752246  0.29850867  0.16999879    -0.73900
O86         O  0.75251614  0.33437556  0.17103213    -0.73900
O87         O  0.75244458  0.31612363  0.15253231    -0.74000
O88         O  0.74722212  0.31649951  0.18824799    -0.74100
O89         O  0.76775508  0.31376213  0.19136127    -0.74000
O90         O  0.77296888  0.31284706  0.15534374    -0.74000
O91         O  0.77307044  0.33122022  0.17382154    -0.73900
O92         O  0.76799857  0.29558677  0.17330431    -0.74000
Ni93       Ni  0.74921918  0.31652888  0.17030247     1.25400
Ni94       Ni  0.77119087  0.31328805  0.17351346     1.25400
C95         C  0.75697443  0.29113041  0.17154172     0.88300
C96         C  0.76359053  0.33865282  0.17318375     0.88200
C97         C  0.76337634  0.31375063  0.14803242     0.88200
C98         C  0.75658614  0.31530740  0.19573092     0.88400
O99         O  0.73182705  0.31309244  0.29520090    -0.73900
O100        O  0.72813894  0.31077822  0.33125496    -0.73900
O101        O  0.72977074  0.33030810  0.31377687    -0.74000
O102        O  0.73042950  0.29398510  0.31244481    -0.74100
O103        O  0.75123545  0.29442835  0.31491674    -0.74000
O104        O  0.75060073  0.33044319  0.31556895    -0.74000
O105        O  0.74887623  0.31151081  0.33350730    -0.73900
O106        O  0.75264595  0.31300478  0.29731880    -0.74000
Ni107      Ni  0.72929246  0.31209225  0.31313477     1.25400
Ni108      Ni  0.75155000  0.31240453  0.31545254     1.25400
C109        C  0.74283175  0.31355220  0.29029341     0.88300
C110        C  0.73790592  0.30986401  0.33830994     0.88200
C111        C  0.74021249  0.33636338  0.31395651     0.88200
C112        C  0.74098710  0.28825801  0.31381281     0.88400
O113        O  0.74134900  0.17258593  0.19411611    -0.73900
O114        O  0.74004326  0.17257654  0.15784128    -0.73900
O115        O  0.74097744  0.15429269  0.17638717    -0.74000
O116        O  0.74033272  0.19046390  0.17584866    -0.74100
O117        O  0.76126176  0.19061477  0.17459260    -0.74000
O118        O  0.76193040  0.15457206  0.17608197    -0.74000
O119        O  0.76093359  0.17211395  0.15715947    -0.73900
O120        O  0.76221855  0.17344957  0.19327518    -0.74000
Ni121      Ni  0.73991947  0.17240289  0.17603269     1.25400
Ni122      Ni  0.76231044  0.17263509  0.17521408     1.25400
C123        C  0.75202839  0.17319308  0.19970497     0.88300
C124        C  0.75031745  0.17305744  0.15151043     0.88200
C125        C  0.75157848  0.14850959  0.17695796     0.88200
C126        C  0.75071976  0.19646980  0.17503903     0.88400
O127        O  0.74777862  0.18647669  0.32170780    -0.73900
O128        O  0.75671377  0.15147513  0.31826088    -0.73900
O129        O  0.75470890  0.16829856  0.33805574    -0.74000
O130        O  0.74968800  0.17006968  0.30224332    -0.74100
O131        O  0.76976746  0.17526714  0.29973650    -0.74000
O132        O  0.77478898  0.17315685  0.33557673    -0.74000
O133        O  0.77679603  0.15672774  0.31554666    -0.73900
O134        O  0.76789554  0.19169025  0.31932289    -0.74000
Ni135      Ni  0.75154055  0.16883409  0.32020745     1.25400
Ni136      Ni  0.77303465  0.17436836  0.31752175     1.25400
C137        C  0.75634149  0.19487271  0.32083732     0.88300
C138        C  0.76813205  0.14839289  0.31574693     0.88200
C139        C  0.76546497  0.17086494  0.34286615     0.88200
C140        C  0.75887528  0.17304613  0.29505509     0.88400
N141        N  0.77197632  0.44049348  0.19854962    -0.03000
C142        C  0.77465575  0.43201646  0.18909866    -0.00400
C143        C  0.77980304  0.43813214  0.17888969    -0.23300
C144        C  0.78083671  0.45051524  0.18208815    -0.23500
C145        C  0.77578662  0.45193602  0.19399822    -0.00500
H146        H  0.78273207  0.43394483  0.17007129     0.13300
H147        H  0.78466297  0.45783195  0.17620159     0.13300
N148        N  0.74699979  0.43889712  0.28942474    -0.03000
C149        C  0.74911394  0.43004867  0.29852530    -0.00400
C150        C  0.75021484  0.43587866  0.31015872    -0.23300
C151        C  0.74827627  0.44849608  0.30838035    -0.23500
C152        C  0.74635772  0.45021092  0.29565636    -0.00500
H153        H  0.75117881  0.43128426  0.31914691     0.13300
H154        H  0.74767946  0.45558230  0.31569203     0.13300
N155        N  0.79041862  0.55276328  0.21665469    -0.03000
C156        C  0.79761983  0.56248294  0.21214585    -0.00400
C157        C  0.80345779  0.55890977  0.20106478    -0.23300
C158        C  0.79978426  0.54688110  0.19844689    -0.23500
C159        C  0.79210265  0.54309390  0.20819171    -0.00500
H160        H  0.80999703  0.56438900  0.19561186     0.13300
H161        H  0.80291038  0.54122668  0.19054653     0.13300
N162        N  0.71252696  0.54581189  0.26896370    -0.03000
C163        C  0.70291575  0.55442775  0.26987873    -0.00400
C164        C  0.69277688  0.54903211  0.27592919    -0.23300
C165        C  0.69601165  0.53680492  0.27857428    -0.23500
C166        C  0.70817672  0.53500101  0.27433567    -0.00500
H167        H  0.68390673  0.55352731  0.27816069     0.13300
H168        H  0.69018173  0.52999961  0.28329386     0.13300
O169        O  0.71135389  0.81317862  0.22694709    -0.73900
O170        O  0.67587822  0.81093579  0.22031424    -0.73900
O171        O  0.69347660  0.83016669  0.22035528    -0.74000
O172        O  0.69406702  0.79447851  0.22704588    -0.74100
O173        O  0.68983284  0.79824115  0.24724978    -0.74000
O174        O  0.68993943  0.83376517  0.24072482    -0.74000
O175        O  0.67186489  0.81497915  0.24052083    -0.73900
O176        O  0.70759736  0.81637814  0.24713434    -0.74000
Ni177      Ni  0.69377545  0.81212245  0.22293193     1.25400
Ni178      Ni  0.68960708  0.81606151  0.24459011     1.25400
C179        C  0.71551106  0.81479988  0.23814205     0.88300
C180        C  0.66805052  0.81185725  0.22945690     0.88200
C181        C  0.69234394  0.83786382  0.22964634     0.88200
C182        C  0.69206061  0.79049755  0.23826235     0.88400
O183        O  0.83393937  0.68873843  0.25238167    -0.73900
O184        O  0.83377571  0.65265323  0.24798698    -0.73900
O185        O  0.85187893  0.67148911  0.24733769    -0.74000
O186        O  0.81625643  0.67006231  0.25317528    -0.74100
O187        O  0.81275024  0.67257505  0.23269438    -0.74000
O188        O  0.84849095  0.67399033  0.22679983    -0.74000
O189        O  0.83038466  0.65518681  0.22746349    -0.73900
O190        O  0.83042130  0.69111934  0.23187857    -0.74000
Ni191      Ni  0.83414748  0.67061897  0.25092600     1.25400
Ni192      Ni  0.83045071  0.67326288  0.22897256     1.25400
C193        C  0.83238357  0.69590107  0.24279810     0.88300
C194        C  0.83104682  0.64802786  0.23713589     0.88200
C195        C  0.85602159  0.67381460  0.23625523     0.88200
C196        C  0.80861480  0.67072693  0.24388226     0.88400
O197        O  0.70836515  0.67177011  0.26075359    -0.73900
O198        O  0.67227570  0.67364693  0.26097353    -0.73900
O199        O  0.68992500  0.65451001  0.26229071    -0.74000
O200        O  0.69099258  0.69057322  0.25934322    -0.74100
O201        O  0.69106110  0.68878078  0.23848466    -0.74000
O202        O  0.68952890  0.65273024  0.24140513    -0.74000
O203        O  0.67204012  0.67194836  0.24003866    -0.73900
O204        O  0.70812803  0.66989257  0.23982412    -0.74000
Ni205      Ni  0.69034936  0.67263924  0.26158330     1.25400
Ni206      Ni  0.69012399  0.67072873  0.23920563     1.25400
C207        C  0.71415755  0.67053423  0.25024614     0.88300
C208        C  0.66627597  0.67374857  0.25050273     0.88200
C209        C  0.69014892  0.64763572  0.25232237     0.88200
C210        C  0.69127161  0.69566858  0.24842044     0.88400
O211        O  0.83487495  0.79771934  0.24006397    -0.73900
O212        O  0.83546275  0.83388596  0.24250101    -0.73900
O213        O  0.85336936  0.81505966  0.24200314    -0.74000
O214        O  0.81717167  0.81632950  0.24030046    -0.74100
O215        O  0.81604628  0.81488796  0.26119300    -0.74000
O216        O  0.85223791  0.81391746  0.26292067    -0.74000
O217        O  0.83417279  0.83245196  0.26318410    -0.73900
O218        O  0.83375683  0.79648478  0.26095064    -0.74000
Ni219      Ni  0.83528967  0.81582427  0.24047272     1.25400
Ni220      Ni  0.83407319  0.81442353  0.26278964     1.25400
C221        C  0.83417793  0.79113107  0.25013731     0.88300
C222        C  0.83440539  0.83926383  0.25328660     0.88200
C223        C  0.85874617  0.81391921  0.25274430     0.88200
C224        C  0.81064897  0.81576620  0.25043788     0.88400
N225        N  0.45129375  0.77047693  0.20886318    -0.03000
C226        C  0.44178716  0.77503639  0.20132867    -0.00400
C227        C  0.44662418  0.78365902  0.19294463    -0.23300
C228        C  0.45907919  0.78502044  0.19561645    -0.23500
C229        C  0.46199607  0.77663439  0.20508081    -0.00500
H230        H  0.44151645  0.78869319  0.18572578     0.13300
H231        H  0.46550589  0.79120871  0.19078806     0.13300
N232        N  0.45408494  0.71537981  0.28522512    -0.03000
C233        C  0.44542446  0.71196348  0.29416042    -0.00400
C234        C  0.45111905  0.70451690  0.30318136    -0.23300
C235        C  0.46336075  0.70285452  0.29965324    -0.23500
C236        C  0.46512416  0.70976438  0.28883458    -0.00500
H237        H  0.44674767  0.70054603  0.31141716     0.13300
H238        H  0.47036910  0.69748171  0.30467293     0.13300
N239        N  0.56503951  0.69964919  0.26086289    -0.03000
C240        C  0.57344216  0.69029167  0.25800273    -0.00400
C241        C  0.56809737  0.67869178  0.25948204    -0.23300
C242        C  0.55615607  0.68074843  0.26363198    -0.23500
C243        C  0.55448905  0.69363551  0.26530444    -0.00500
H244        H  0.57253778  0.66962908  0.25789092     0.13300
H245        H  0.54931688  0.67336896  0.26480353     0.13300
N246        N  0.56579329  0.78507452  0.22076452    -0.03000
C247        C  0.57510657  0.79342354  0.21755319    -0.00400
C248        C  0.56987669  0.80350299  0.21122642    -0.23300
C249        C  0.55727228  0.80128063  0.21006930    -0.23500
C250        C  0.55479679  0.79010832  0.21614853    -0.00500
H251        H  0.57480221  0.81160415  0.20761589     0.13300
H252        H  0.55052880  0.80734109  0.20544080     0.13300
N253        N  0.95444959  0.70885426  0.22276229    -0.03000
C254        C  0.94613274  0.69988017  0.21869775    -0.00400
C255        C  0.95191826  0.69197693  0.21008327    -0.23300
C256        C  0.96399459  0.69618485  0.20855283    -0.23500
C257        C  0.96541406  0.70644808  0.21641560    -0.00500
H258        H  0.94773775  0.68403537  0.20534187     0.13300
H259        H  0.97101762  0.69219524  0.20234501     0.13300
N260        N  0.95897989  0.78907205  0.27110692    -0.03000
C261        C  0.95102679  0.79912208  0.27260050    -0.00400
C262        C  0.95713195  0.80859023  0.27913688    -0.23300
C263        C  0.96902218  0.80425041  0.28193725    -0.23500
C264        C  0.97000279  0.79229994  0.27687792    -0.00500
H265        H  0.95326362  0.81760181  0.28179631     0.13300
H266        H  0.97612473  0.80922468  0.28718832     0.13300
N267        N  0.06241842  0.73887440  0.20213878    -0.03000
C268        C  0.07093111  0.74027950  0.19251454    -0.00400
C269        C  0.06472752  0.74289655  0.18139261    -0.23300
C270        C  0.05215840  0.74333867  0.18405611    -0.23500
C271        C  0.05085364  0.74051853  0.19667037    -0.00500
H272        H  0.06888914  0.74388470  0.17217238     0.13300
H273        H  0.04467553  0.74451335  0.17728364     0.13300
N274        N  0.06147306  0.74682444  0.29625921    -0.03000
C275        C  0.06950364  0.74410265  0.30600102    -0.00400
C276        C  0.06280605  0.74272934  0.31704786    -0.23300
C277        C  0.05035401  0.74453437  0.31416940    -0.23500
C278        C  0.04971079  0.74732182  0.30147417    -0.00500
H279        H  0.06662381  0.74112604  0.32631874     0.13300
H280        H  0.04268661  0.74471889  0.32080213     0.13300
N281        N  0.28093729  0.79064158  0.94370677    -0.03000
C282        C  0.28155151  0.80045504  0.93534717    -0.00400
C283        C  0.28334362  0.81161404  0.94180025    -0.23300
C284        C  0.28347837  0.80885156  0.95436774    -0.23500
C285        C  0.28231441  0.79596962  0.95544391    -0.00500
H286        H  0.28437160  0.82084606  0.93777147     0.13300
H287        H  0.28474558  0.81553459  0.96196021     0.13300
N288        N  0.25733024  0.69979315  0.94427739    -0.03000
C289        C  0.25827671  0.68951386  0.93645143    -0.00400
C290        C  0.25823768  0.67859207  0.94343852    -0.23300
C291        C  0.25744398  0.68204077  0.95582926    -0.23500
C292        C  0.25652374  0.69500016  0.95620163    -0.00500
H293        H  0.25822154  0.66906630  0.93986832     0.13300
H294        H  0.25643625  0.67570621  0.96369296     0.13300
N295        N  0.29991400  0.76408908  0.05379178    -0.03000
C296        C  0.30923510  0.76591346  0.06250932    -0.00400
C297        C  0.31993236  0.77030419  0.05657187    -0.23300
C298        C  0.31710510  0.77164756  0.04404096    -0.23500
C299        C  0.30484513  0.76772232  0.04245847    -0.00500
H300        H  0.32868395  0.77285083  0.06100383     0.13300
H301        H  0.32324459  0.77536181  0.03690373     0.13300
N302        N  0.21911644  0.71747904  0.05106269    -0.03000
C303        C  0.20941689  0.71316052  0.05835106    -0.00400
C304        C  0.20151971  0.70574507  0.05114384    -0.23300
C305        C  0.20648981  0.70522594  0.03921798    -0.23500
C306        C  0.21719905  0.71251873  0.03930212    -0.00500
H307        H  0.19312094  0.70102531  0.05430838     0.13300
H308        H  0.20270555  0.70004831  0.03129856     0.13300
O309        O  0.18780767  0.74110973  0.19155972    -0.73900
O310        O  0.18739290  0.73525441  0.15581554    -0.73900
O311        O  0.16922573  0.73751825  0.17431896    -0.74000
O312        O  0.20524188  0.73870873  0.17338718    -0.74100
O313        O  0.20619911  0.71832433  0.17759000    -0.74000
O314        O  0.17007990  0.71676680  0.17710578    -0.74000
O315        O  0.18888237  0.71462037  0.15904420    -0.73900
O316        O  0.18789505  0.72050711  0.19490593    -0.74000
Ni317      Ni  0.18728562  0.73885135  0.17359116     1.25400
Ni318      Ni  0.18821805  0.71679054  0.17718076     1.25400
C319        C  0.18822686  0.73180286  0.19916560     0.88300
C320        C  0.18896502  0.72406858  0.15154458     0.88200
C321        C  0.16374316  0.72702356  0.17643919     0.88200
C322        C  0.21170969  0.72885744  0.17587711     0.88400
O323        O  0.30687734  0.75633055  0.18160190    -0.73900
O324        O  0.34089892  0.76853051  0.18274301    -0.73900
O325        O  0.32247426  0.76682187  0.16446092    -0.74000
O326        O  0.32507160  0.75828500  0.19939639    -0.74100
O327        O  0.33159454  0.73910135  0.19424650    -0.74000
O328        O  0.32942012  0.74776247  0.15917814    -0.74000
O329        O  0.34777749  0.74936970  0.17758515    -0.73900
O330        O  0.31385686  0.73727758  0.17608431    -0.74000
Ni331      Ni  0.32360335  0.76319571  0.18216291     1.25400
Ni332      Ni  0.33097811  0.74274314  0.17653126     1.25400
C333        C  0.30481789  0.74479320  0.17872775     0.88300
C334        C  0.34995923  0.76068304  0.18114980     0.88200
C335        C  0.32489882  0.75850753  0.15602357     0.88200
C336        C  0.32871674  0.74730530  0.20266490     0.88400
O337        O  0.18786495  0.73126994  0.30097784    -0.73900
O338        O  0.18732782  0.73377030  0.33700561    -0.73900
O339        O  0.16939761  0.73404786  0.31847343    -0.74000
O340        O  0.20546052  0.73117165  0.31935794    -0.74100
O341        O  0.20705476  0.75200614  0.31784067    -0.74000
O342        O  0.17103152  0.75490678  0.31733035    -0.74000
O343        O  0.18925570  0.75456096  0.33578104    -0.73900
O344        O  0.18913427  0.75209006  0.29957374    -0.74000
Ni345      Ni  0.18740537  0.73184003  0.31902675     1.25400
Ni346      Ni  0.18912683  0.75414006  0.31761174     1.25400
C347        C  0.18865205  0.74122499  0.29429451     0.88300
C348        C  0.18881963  0.74447634  0.34235959     0.88200
C349        C  0.16430020  0.74494568  0.31742211     0.88200
C350        C  0.21217437  0.74112895  0.31872522     0.88400
O351        O  0.33116592  0.73918524  0.30241734    -0.73900
O352        O  0.33187920  0.73749984  0.33824980    -0.73900
O353        O  0.34964481  0.73589288  0.31943747    -0.74000
O354        O  0.31376640  0.74043898  0.32078394    -0.74100
O355        O  0.31120725  0.71969371  0.31941530    -0.74000
O356        O  0.34700214  0.71511803  0.31868362    -0.74000
O357        O  0.32890375  0.71677993  0.33742364    -0.73900
O358        O  0.32905392  0.71842321  0.30114435    -0.74000
Ni359      Ni  0.33176104  0.73896075  0.32032698     1.25400
Ni360      Ni  0.32899669  0.71673712  0.31920249     1.25400
C361        C  0.33021602  0.72916493  0.29581759     0.88300
C362        C  0.32965587  0.72707292  0.34375017     0.88200
C363        C  0.35414720  0.72476060  0.31804372     0.88200
C364        C  0.30658802  0.73080297  0.32016082     0.88400
N365        N  0.23764949  0.78346335  0.55066222    -0.03000
C366        C  0.23665475  0.79377586  0.55837120    -0.00400
C367        C  0.23209549  0.80388802  0.55157111    -0.23300
C368        C  0.22984485  0.79972744  0.53953635    -0.23500
C369        C  0.23339625  0.78723544  0.53909168    -0.00500
H370        H  0.23004958  0.81318093  0.55516508     0.13300
H371        H  0.22584166  0.80517831  0.53198001     0.13300
N372        N  0.27598314  0.69811414  0.55088671    -0.03000
C373        C  0.27769340  0.68796294  0.55854319    -0.00400
C374        C  0.28186962  0.67776369  0.55155209    -0.23300
C375        C  0.28315317  0.68173922  0.53935498    -0.23500
C376        C  0.27941882  0.69418338  0.53908684    -0.00500
H377        H  0.28444356  0.66863652  0.55510266     0.13300
H378        H  0.28676815  0.67623438  0.53158059     0.13300
N379        N  0.30206579  0.73103552  0.44510410    -0.03000
C380        C  0.31240226  0.73206598  0.43741264    -0.00400
C381        C  0.32327023  0.73238127  0.44456226    -0.23300
C382        C  0.31975536  0.73184815  0.45691006    -0.23500
C383        C  0.30683757  0.73066913  0.45708417    -0.00500
H384        H  0.33280193  0.73257734  0.44114431     0.13300
H385        H  0.32600882  0.73133063  0.46486673     0.13300
N386        N  0.20956360  0.74801462  0.44546496    -0.03000
C387        C  0.19943165  0.74691610  0.43750571    -0.00400
C388        C  0.18838186  0.74729584  0.44436543    -0.23300
C389        C  0.19160129  0.74834940  0.45679269    -0.23500
C390        C  0.20455015  0.74913548  0.45731661    -0.00500
H391        H  0.17891605  0.74714995  0.44069104     0.13300
H392        H  0.18513340  0.74937102  0.46457664     0.13300
O393        O  0.24364151  0.79478264  0.67690667    -0.73900
O394        O  0.23717729  0.83031302  0.67787626    -0.73900
O395        O  0.23674784  0.81177588  0.65952099    -0.74000
O396        O  0.24408532  0.81298854  0.69501637    -0.74100
O397        O  0.26408686  0.81728355  0.69068540    -0.74000
O398        O  0.25700864  0.81506753  0.65530768    -0.74000
O399        O  0.25718972  0.83395881  0.67299887    -0.73900
O400        O  0.26388733  0.79848741  0.67328171    -0.74000
Ni401      Ni  0.23967124  0.81238164  0.67744362     1.25400
Ni402      Ni  0.26123314  0.81635556  0.67287482     1.25400
C403        C  0.25484054  0.79074392  0.67493127     0.88300
C404        C  0.24627290  0.83800462  0.67619007     0.88200
C405        C  0.24582172  0.81256344  0.65160411     0.88200
C406        C  0.25529465  0.81546387  0.69870639     0.88400
O407        O  0.26818909  0.66996862  0.80109312    -0.73900
O408        O  0.26625346  0.67162509  0.83709273    -0.73900
O409        O  0.26603720  0.65259930  0.81941105    -0.74000
O410        O  0.26840511  0.68859317  0.81840179    -0.74100
O411        O  0.24750607  0.69006736  0.81712241    -0.74000
O412        O  0.24515759  0.65407541  0.81848000    -0.74000
O413        O  0.24539689  0.67333105  0.83596092    -0.73900
O414        O  0.24729497  0.67124457  0.79987018    -0.74000
Ni415      Ni  0.26794778  0.67058613  0.81910266     1.25400
Ni416      Ni  0.24558469  0.67216181  0.81786635     1.25400
C417        C  0.25809044  0.67050327  0.79454423     0.88300
C418        C  0.25558663  0.67349417  0.84242112     0.88200
C419        C  0.25522627  0.64738496  0.81847018     0.88200
C420        C  0.25836239  0.69522386  0.81750637     0.88400
O421        O  0.26198249  0.81429104  0.79936005    -0.73900
O422        O  0.26558821  0.81491978  0.83550234    -0.73900
O423        O  0.26653891  0.83250890  0.81652228    -0.74000
O424        O  0.26085432  0.79707761  0.81821964    -0.74100
O425        O  0.28130556  0.79350595  0.81579379    -0.74000
O426        O  0.28706709  0.82921371  0.81421604    -0.74000
O427        O  0.28614505  0.81142953  0.83337847    -0.73900
O428        O  0.28260602  0.81103381  0.79723854    -0.74000
Ni429      Ni  0.26304432  0.81486879  0.81751132     1.25400
Ni430      Ni  0.28503724  0.81120456  0.81517707     1.25400
C431        C  0.27172488  0.81275836  0.79236936     0.88300
C432        C  0.27637036  0.81255317  0.84040108     0.88200
C433        C  0.27755488  0.83669938  0.81415556     0.88200
C434        C  0.27006694  0.78938445  0.81723935     0.88400
O435        O  0.28264962  0.69247783  0.67667431    -0.73900
O436        O  0.28752847  0.65667953  0.67910181    -0.73900
O437        O  0.28737972  0.67409821  0.65973547    -0.74000
O438        O  0.28283471  0.67517633  0.69569694    -0.74100
O439        O  0.26227407  0.67283824  0.69302518    -0.74000
O440        O  0.26682664  0.67095286  0.65720441    -0.74000
O441        O  0.26690763  0.65386437  0.67679388    -0.73900
O442        O  0.26212028  0.68958818  0.67388647    -0.74000
Ni443      Ni  0.28584549  0.67468415  0.67783224     1.25400
Ni444      Ni  0.26383139  0.67166122  0.67508109     1.25400
C445        C  0.27157791  0.69694998  0.67484023     0.88300
C446        C  0.27789395  0.64945829  0.67920155     0.88200
C447        C  0.27774258  0.67302156  0.65254074     0.88200
C448        C  0.27179350  0.67389675  0.70034253     0.88400
O449        O  0.82692406  0.22686823  0.69743440    -0.73900
O450        O  0.82578898  0.22030646  0.66202873    -0.73900
O451        O  0.84428919  0.22055967  0.68025028    -0.74000
O452        O  0.80875117  0.22688332  0.67973955    -0.74100
O453        O  0.81251379  0.24720650  0.67739842    -0.74000
O454        O  0.84767501  0.24043904  0.67500218    -0.74000
O455        O  0.82808625  0.24079381  0.65829758    -0.73900
O456        O  0.83164958  0.24691783  0.69360024    -0.74000
Ni457      Ni  0.82635405  0.22287662  0.67991182     1.25400
Ni458      Ni  0.83015874  0.24453045  0.67584834     1.25400
C459        C  0.82941291  0.23798744  0.70129037     0.88300
C460        C  0.82606914  0.22958374  0.65439466     0.88200
C461        C  0.85189043  0.22969841  0.67842157     0.88200
C462        C  0.80475963  0.23824490  0.67911204     0.88400
O463        O  0.70195859  0.25543894  0.81995745    -0.73900
O464        O  0.66594407  0.25340438  0.82159868    -0.73900
O465        O  0.68518848  0.25249438  0.83882136    -0.74000
O466        O  0.68307391  0.25636956  0.80302962    -0.74100
O467        O  0.68464434  0.23559683  0.80058365    -0.74000
O468        O  0.68592490  0.23167370  0.83648201    -0.74000
O469        O  0.66703730  0.23265568  0.81881265    -0.73900
O470        O  0.70315506  0.23464066  0.81814459    -0.74000
Ni471      Ni  0.68393651  0.25514742  0.82098243     1.25400
Ni472      Ni  0.68516817  0.23289016  0.81844817     1.25400
C473        C  0.70854430  0.24538095  0.81884240     0.88300
C474        C  0.66052587  0.24277690  0.81995133     0.88200
C475        C  0.68647614  0.24148291  0.84350862     0.88200
C476        C  0.68384901  0.24665775  0.79590803     0.88400
O477        O  0.68751907  0.26081801  0.69450879    -0.73900
O478        O  0.68715957  0.25727212  0.65840407    -0.73900
O479        O  0.66913600  0.25864159  0.67727236    -0.74000
O480        O  0.70511039  0.25968644  0.67622121    -0.74100
O481        O  0.70568462  0.23877114  0.67772119    -0.74000
O482        O  0.66981433  0.23780938  0.67920732    -0.74000
O483        O  0.68730255  0.23659442  0.66025923    -0.73900
O484        O  0.68832351  0.23996270  0.69622553    -0.74000
Ni485      Ni  0.68714585  0.25984809  0.67643813     1.25400
Ni486      Ni  0.68778107  0.23755020  0.67834495     1.25400
C487        C  0.68800748  0.25090345  0.70130847     0.88300
C488        C  0.68767614  0.24634256  0.65324386     0.88200
C489        C  0.66363571  0.24815795  0.67937838     0.88200
C490        C  0.71127055  0.24937914  0.67704993     0.88400
O491        O  0.82609525  0.26218036  0.79968225    -0.73900
O492        O  0.82706317  0.26449331  0.83574596    -0.73900
O493        O  0.84471372  0.26490600  0.81653658    -0.74000
O494        O  0.80872671  0.26190190  0.81818649    -0.74100
O495        O  0.81059749  0.24104210  0.81900322    -0.74000
O496        O  0.84671695  0.24423577  0.81845210    -0.74000
O497        O  0.82847940  0.24363993  0.83686733    -0.73900
O498        O  0.82851405  0.24138324  0.80101950    -0.74000
Ni499      Ni  0.82663213  0.26412725  0.81758336     1.25400
Ni500      Ni  0.82869490  0.24185229  0.81894478     1.25400
C501        C  0.82714939  0.25135151  0.79447833     0.88300
C502        C  0.82728274  0.25435601  0.84226027     0.88200
C503        C  0.85168842  0.25503738  0.81648878     0.88200
C504        C  0.80372604  0.25097208  0.81851166     0.88400
N505        N  0.21274892  0.44222749  0.76208346    -0.03000
C506        C  0.20301428  0.43384692  0.76247954    -0.00400
C507        C  0.19193407  0.43993332  0.76560166    -0.23300
C508        C  0.19464971  0.45242168  0.76675985    -0.23500
C509        C  0.20745235  0.45364598  0.76493874    -0.00500
H510        H  0.18281885  0.43573328  0.76686296     0.13300
H511        H  0.18810295  0.45975227  0.76932052     0.13300
N512        N  0.30276804  0.43842435  0.73335014    -0.03000
C513        C  0.31218942  0.42955967  0.73304571    -0.00400
C514        C  0.32342293  0.43502399  0.72957671    -0.23300
C515        C  0.32120160  0.44755319  0.72811818    -0.23500
C516        C  0.30850763  0.44947943  0.73010933    -0.00500
H517        H  0.33241219  0.43033916  0.72833939     0.13300
H518        H  0.32804487  0.45449776  0.72537381     0.13300
N519        N  0.28296157  0.54816090  0.70751607    -0.03000
C520        C  0.28521297  0.55681693  0.69829285    -0.00400
C521        C  0.29032498  0.55090646  0.68782793    -0.23300
C522        C  0.29166753  0.53842391  0.69070609    -0.23500
C523        C  0.28704872  0.53689601  0.70273887    -0.00500
H524        H  0.29325285  0.55532266  0.67920046     0.13300
H525        H  0.29577078  0.53125327  0.68473700     0.13300
N526        N  0.24685088  0.54556474  0.79426158    -0.03000
C527        C  0.24800654  0.55315459  0.80463146    -0.00400
C528        C  0.24488927  0.54645065  0.81533402    -0.23300
C529        C  0.24125854  0.53466920  0.81151955    -0.23500
C530        C  0.24262666  0.53426071  0.79860358    -0.00500
H531        H  0.24452577  0.55002583  0.82485947     0.13300
H532        H  0.23776774  0.52730226  0.81748992     0.13300
N533        N  0.23347381  0.93855959  0.70346884    -0.03000
C534        C  0.23074337  0.93044305  0.69377286    -0.00400
C535        C  0.22404722  0.93653993  0.68446826    -0.23300
C536        C  0.22277977  0.94878612  0.68818202    -0.23500
C537        C  0.22840857  0.94987742  0.69986438    -0.00500
H538        H  0.22057793  0.93250480  0.67578595     0.13300
H539        H  0.21816875  0.95614625  0.68294596     0.13300
N540        N  0.28554653  0.93684565  0.78239321    -0.03000
C541        C  0.28844594  0.92853525  0.79184150    -0.00400
C542        C  0.29532608  0.93446334  0.80115642    -0.23300
C543        C  0.29646397  0.94675431  0.79777575    -0.23500
C544        C  0.29072399  0.94803735  0.78619445    -0.00500
H545        H  0.29905970  0.93026529  0.80961693     0.13300
H546        H  0.30135356  0.95395738  0.80302149     0.13300
N547        N  0.22107431  0.05256932  0.71554406    -0.03000
C548        C  0.21274682  0.06143335  0.71128690    -0.00400
C549        C  0.20398032  0.05596762  0.70340956    -0.23300
C550        C  0.20661459  0.04337846  0.70301050    -0.23500
C551        C  0.21719644  0.04142056  0.71031508    -0.00500
H552        H  0.19614239  0.06058229  0.69890692     0.13300
H553        H  0.20131517  0.03634432  0.69795667     0.13300
N554        N  0.30098065  0.04700922  0.75577764    -0.03000
C555        C  0.31010630  0.05488489  0.75121489    -0.00400
C556        C  0.32026778  0.04821175  0.74659706    -0.23300
C557        C  0.31765823  0.03580019  0.74826642    -0.23500
C558        C  0.30597344  0.03524573  0.75384729    -0.00500
H559        H  0.32884970  0.05203084  0.74282883     0.13300
H560        H  0.32377971  0.02799753  0.74605417     0.13300
N561        N  0.95299612  0.26748082  0.78715282    -0.03000
C562        C  0.94393473  0.26997389  0.79607844    -0.00400
C563        C  0.94890751  0.27743933  0.80551558    -0.23300
C564        C  0.96131791  0.27931770  0.80274752    -0.23500
C565        C  0.96368966  0.27332173  0.79143203    -0.00500
H566        H  0.94405090  0.28086069  0.81382852     0.13300
H567        H  0.96795177  0.28450069  0.80841767     0.13300
N568        N  0.95368235  0.22069284  0.70441869    -0.03000
C569        C  0.94452609  0.21715440  0.69600810    -0.00400
C570        C  0.94983510  0.21056875  0.68608205    -0.23300
C571        C  0.96252798  0.21048333  0.68791390    -0.23500
C572        C  0.96475956  0.21641214  0.69927986    -0.00500
H573        H  0.94498966  0.20669244  0.67803411     0.13300
H574        H  0.96942124  0.20632095  0.68169891     0.13300
N575        N  0.06553961  0.28643243  0.76981810    -0.03000
C576        C  0.07410706  0.29578766  0.77205698    -0.00400
C577        C  0.06844944  0.30545883  0.77872951    -0.23300
C578        C  0.05607254  0.30230778  0.78031756    -0.23500
C579        C  0.05442739  0.29055471  0.77499212    -0.00500
H580        H  0.07278795  0.31409084  0.78177867     0.13300
H581        H  0.04900723  0.30797756  0.78495757     0.13300
N582        N  0.06601016  0.20512951  0.72236385    -0.03000
C583        C  0.07431626  0.19548607  0.72011559    -0.00400
C584        C  0.06853927  0.18606784  0.71327169    -0.23300
C585        C  0.05633915  0.18977262  0.71134098    -0.23500
C586        C  0.05495769  0.20150666  0.71680794    -0.00500
H587        H  0.07278725  0.17743068  0.70997672     0.13300
H588        H  0.04925475  0.18455435  0.70629108     0.13300
O589        O  0.19174416  0.19540007  0.72929311    -0.73900
O590        O  0.19310625  0.16012953  0.72273991    -0.73900
O591        O  0.17434595  0.17821395  0.72350813    -0.74000
O592        O  0.21018078  0.17765838  0.72900345    -0.74100
O593        O  0.20699105  0.17456473  0.74933618    -0.74000
O594        O  0.17136561  0.17392872  0.74377783    -0.74000
O595        O  0.19037455  0.15621924  0.74310636    -0.73900
O596        O  0.18822196  0.19180587  0.74966446    -0.74000
Ni597      Ni  0.19242223  0.17791504  0.72540462     1.25400
Ni598      Ni  0.18910151  0.17391133  0.74718066     1.25400
C599        C  0.18952395  0.19941264  0.74043282     0.88300
C600        C  0.19261800  0.15232700  0.73185670     0.88200
C601        C  0.16695117  0.17697378  0.73298383     0.88200
C602        C  0.21457615  0.17630805  0.74017170     0.88400
O603        O  0.19088372  0.29837337  0.75530573    -0.73900
O604        O  0.19047513  0.33395340  0.75962455    -0.73900
O605        O  0.17272667  0.31517188  0.76031247    -0.74000
O606        O  0.20830139  0.31693587  0.75437854    -0.74100
O607        O  0.20485132  0.31945467  0.73387937    -0.74000
O608        O  0.16917634  0.31755390  0.73981513    -0.74000
O609        O  0.18686539  0.33646800  0.73912884    -0.73900
O610        O  0.18740701  0.30051552  0.73471187    -0.74000
Ni611      Ni  0.19068022  0.31605712  0.75811489     1.25400
Ni612      Ni  0.18691044  0.31859886  0.73613746     1.25400
C613        C  0.18893017  0.29355896  0.74444113     0.88300
C614        C  0.18938471  0.34108611  0.75001989     0.88200
C615        C  0.16508123  0.31542122  0.75096495     0.88200
C616        C  0.21245870  0.31884366  0.74322002     0.88400
O617        O  0.33069004  0.29412740  0.73156289    -0.73900
O618        O  0.33023234  0.33022402  0.72935360    -0.73900
O619        O  0.34873338  0.31191957  0.73016056    -0.74000
O620        O  0.31268366  0.31233536  0.73035373    -0.74100
O621        O  0.31284014  0.31358579  0.75132394    -0.74000
O622        O  0.34909920  0.31317827  0.75112745    -0.74000
O623        O  0.33073788  0.33140056  0.75027353    -0.73900
O624        O  0.33124237  0.29563540  0.75241389    -0.74000
Ni625      Ni  0.33064927  0.31211347  0.72960415     1.25400
Ni626      Ni  0.33100048  0.31352445  0.75201713     1.25400
C627        C  0.33124945  0.28891085  0.74242160     0.88300
C628        C  0.32954259  0.33671280  0.73955372     0.88200
C629        C  0.35482680  0.31191457  0.74057352     0.88200
C630        C  0.30684221  0.31338861  0.74082638     0.88400
O631        O  0.33400261  0.18949110  0.76061381    -0.73900
O632        O  0.33159561  0.15362363  0.76289104    -0.73900
O633        O  0.35101055  0.17062768  0.76234718    -0.74000
O634        O  0.31487172  0.17272568  0.76102344    -0.74100
O635        O  0.31570812  0.17119302  0.74008698    -0.74000
O636        O  0.35169671  0.16919175  0.74140134    -0.74000
O637        O  0.33234357  0.15220351  0.74195678    -0.73900
O638        O  0.33474885  0.18796159  0.73967167    -0.74000
Ni639      Ni  0.33289789  0.17162401  0.76248455     1.25400
Ni640      Ni  0.33369791  0.17004127  0.74005610     1.25400
C641        C  0.33463833  0.19461143  0.74974593     0.88300
C642        C  0.33094810  0.14707612  0.75275652     0.88200
C643        C  0.35729638  0.17017119  0.75203581     0.88200
C644        C  0.30936368  0.17226017  0.75028566     0.88400
N645        N  0.55756058  0.23992976  0.80056837    -0.03000
C646        C  0.56531016  0.24166538  0.81078221    -0.00400
C647        C  0.55821155  0.24248855  0.82166321    -0.23300
C648        C  0.54584905  0.24155787  0.81822323    -0.23500
C649        C  0.54559094  0.23963526  0.80535400    -0.00500
H650        H  0.56167346  0.24336316  0.83118405     0.13300
H651        H  0.53791039  0.24140397  0.82456019     0.13300
N652        N  0.56245677  0.25170233  0.70710911    -0.03000
C653        C  0.57089672  0.25009306  0.69745875    -0.00400
C654        C  0.56476766  0.25052403  0.68598830    -0.23300
C655        C  0.55225396  0.25210945  0.68844051    -0.23500
C656        C  0.55101655  0.25314141  0.70134427    -0.00500
H657        H  0.56900266  0.24994477  0.67676164     0.13300
H658        H  0.54489540  0.25315455  0.68150625     0.13300
N659        N  0.45542516  0.20100062  0.76722791    -0.03000
C660        C  0.44823731  0.19068803  0.76991734    -0.00400
C661        C  0.45468793  0.18270229  0.77787921    -0.23300
C662        C  0.46600339  0.18822899  0.78048104    -0.23500
C663        C  0.46640228  0.19934219  0.77381755    -0.00500
H664        H  0.45134763  0.17391309  0.78166381     0.13300
H665        H  0.47320993  0.18455552  0.78666919     0.13300
N666        N  0.45494895  0.28446982  0.72716718    -0.03000
C667        C  0.44704059  0.29451349  0.72549714    -0.00400
C668        C  0.45355037  0.30453185  0.72047498    -0.23300
C669        C  0.46574200  0.30063493  0.71879011    -0.23500
C670        C  0.46646226  0.28841024  0.72306074    -0.00500
H671        H  0.44979600  0.31368987  0.71823216     0.13300
H672        H  0.47330916  0.30615303  0.71494568     0.13300
C673        C  0.45217123  0.27216430  0.73235287     0.01800
C674        C  0.45881878  0.26785192  0.74305762     0.04700
C675        C  0.45810813  0.25523190  0.74676135    -0.11400
C676        C  0.45015533  0.24686991  0.74034053     0.24000
C677        C  0.44291945  0.25113170  0.73013914    -0.12000
C678        C  0.44396743  0.26369753  0.72606986     0.05400
C679        C  0.44934082  0.23372519  0.74483534     0.27800
C680        C  0.45864610  0.22497719  0.74136263    -0.12700
C681        C  0.46008224  0.21377118  0.74822079     0.05900
C682        C  0.45241335  0.21136387  0.75885003    -0.08600
C683        C  0.44230517  0.21973426  0.76148037     0.06700
C684        C  0.44068220  0.23072987  0.75431688    -0.13000
Br685      Br  0.43194558  0.23950367  0.72153745    -0.05100
Br686      Br  0.46848668  0.27914757  0.75331990     0.00600
Br687      Br  0.47253645  0.20182729  0.74275258     0.01000
Br688      Br  0.42706750  0.24228817  0.75793829    -0.03400
Br689      Br  0.43475520  0.26861141  0.71133598     0.01100
Br690      Br  0.46833841  0.24920722  0.76056881    -0.02700
Br691      Br  0.46983027  0.22882826  0.72758769    -0.03500
Br692      Br  0.43139016  0.21741909  0.77565905     0.00400
C693        C  0.47849033  0.28109102  0.72295702     0.01800
C694        C  0.48904698  0.28558798  0.72978033     0.04700
C695        C  0.50078013  0.27947636  0.72873050    -0.11400
C696        C  0.50236664  0.26947344  0.72016314     0.24000
C697        C  0.49192567  0.26490055  0.71342701    -0.12000
C698        C  0.48005770  0.27069484  0.71476935     0.05400
C699        C  0.51525413  0.26549904  0.71634904     0.27800
C700        C  0.52186567  0.27294642  0.70767661    -0.12700
C701        C  0.53367978  0.26904894  0.70320161     0.05900
C702        C  0.53896558  0.25745605  0.70716474    -0.08600
C703        C  0.53223503  0.24991877  0.71574756     0.06700
C704        C  0.52055115  0.25410035  0.72056225    -0.13000
Br705      Br  0.49421407  0.25134139  0.70147763    -0.05100
Br706      Br  0.48795089  0.30078183  0.73981490     0.00600
Br707      Br  0.54276245  0.28008058  0.69196976     0.01000
Br708      Br  0.51154325  0.24412198  0.73265435    -0.03400
Br709      Br  0.46669277  0.26562357  0.70369147     0.01100
Br710      Br  0.51501902  0.28524251  0.73841690    -0.02700
Br711      Br  0.51449940  0.28843083  0.70158632    -0.03500
Br712      Br  0.53828497  0.23339664  0.72001213     0.00400
C713        C  0.53390843  0.23516448  0.79887077     0.01800
C714        C  0.52802164  0.22406445  0.80325156     0.04700
C715        C  0.51672138  0.21987975  0.79781641    -0.11400
C716        C  0.51141523  0.22628605  0.78750275     0.24000
C717        C  0.51722561  0.23731112  0.78305181    -0.12000
C718        C  0.52817929  0.24198163  0.78900030     0.05400
C719        C  0.49977323  0.22114483  0.78150953     0.27800
C720        C  0.50056755  0.21012640  0.77416011    -0.12700
C721        C  0.48963281  0.20325721  0.77122225     0.05900
C722        C  0.47755949  0.20790271  0.77465416    -0.08600
C723        C  0.47679875  0.21939161  0.78139394     0.06700
C724        C  0.48784429  0.22589324  0.78489577    -0.13000
Br725      Br  0.51012502  0.24595822  0.76880240    -0.05100
Br726      Br  0.53579407  0.21385393  0.81617562     0.00600
Br727      Br  0.49160881  0.18671512  0.76382661     0.01000
Br728      Br  0.48676347  0.24066669  0.79547264    -0.03400
Br729      Br  0.53461726  0.25816358  0.78428372     0.01100
Br730      Br  0.50839886  0.20526728  0.80459899    -0.02700
Br731      Br  0.51689711  0.20393275  0.76902568    -0.03500
Br732      Br  0.46091421  0.22530803  0.78774930     0.00400
C733        C  0.56087954  0.24058807  0.78728434     0.01800
C734        C  0.55697242  0.23117019  0.77864344     0.04700
C735        C  0.55771939  0.23328625  0.76556334    -0.11400
C736        C  0.56407391  0.24391869  0.76090036     0.24000
C737        C  0.56931116  0.25255100  0.76948802    -0.12000
C738        C  0.56682045  0.25145120  0.78245118     0.05400
C739        C  0.56467083  0.24642064  0.74706973     0.27800
C740        C  0.57124459  0.23823565  0.73893256    -0.12700
C741        C  0.57011309  0.23962270  0.72578994     0.05900
C742        C  0.56460861  0.25062831  0.72061681    -0.08600
C743        C  0.55972514  0.25976552  0.72906917     0.06700
C744        C  0.55851533  0.25699584  0.74194906    -0.13000
Br745      Br  0.57965302  0.26615642  0.76343700    -0.05100
Br746      Br  0.55095426  0.21509858  0.78430930     0.00600
Br747      Br  0.57412605  0.22529935  0.71549075     0.01000
Br748      Br  0.54764001  0.26730541  0.75230615    -0.03400
Br749      Br  0.56963847  0.26596154  0.79289533     0.01100
Br750      Br  0.54924484  0.22197581  0.75410971    -0.02700
Br751      Br  0.58163624  0.22497430  0.74576677    -0.03500
Br752      Br  0.55549111  0.27648748  0.72360788     0.00400
C753        C  0.37116522  0.17175296  0.75240019     0.01800
C754        C  0.37885145  0.16325538  0.75907233     0.04700
C755        C  0.39181746  0.16567666  0.76053872    -0.11400
C756        C  0.39700009  0.17705489  0.75612829     0.24000
C757        C  0.38936678  0.18538417  0.74917358    -0.12000
C758        C  0.37666015  0.18246261  0.74684043     0.05400
C759        C  0.41017367  0.18064023  0.75948164     0.27800
C760        C  0.41306588  0.18412160  0.77196678    -0.12700
C761        C  0.42548647  0.18720316  0.77533899     0.05900
C762        C  0.43499328  0.18804778  0.76601055    -0.08600
C763        C  0.43209412  0.18446484  0.75352844     0.06700
C764        C  0.41979664  0.18060007  0.75032403    -0.13000
Br765      Br  0.39609983  0.20122077  0.74350985    -0.05100
Br766      Br  0.37162731  0.14818616  0.76597223     0.00600
Br767      Br  0.42933879  0.19004354  0.79294851     0.01000
Br768      Br  0.41621165  0.17469221  0.73349868    -0.03400
Br769      Br  0.36678314  0.19343901  0.73627233     0.01100
Br770      Br  0.40250029  0.15348382  0.76870579    -0.02700
Br771      Br  0.39990582  0.18482044  0.78450572    -0.03500
Br772      Br  0.44517386  0.18348007  0.74106850     0.00400
C773        C  0.43335237  0.29544806  0.72846142     0.01800
C774        C  0.42920066  0.29651013  0.74105516     0.04700
C775        C  0.41645652  0.29909589  0.74375538    -0.11400
C776        C  0.40770986  0.30057555  0.73389268     0.24000
C777        C  0.41180835  0.29959677  0.72131501    -0.12000
C778        C  0.42463026  0.29765500  0.71860529     0.05400
C779        C  0.39433362  0.30381952  0.73665766     0.27800
C780        C  0.38605384  0.29457721  0.74117815    -0.12700
C781        C  0.37337038  0.29763523  0.74354469     0.05900
C782        C  0.36858762  0.30960236  0.74030974    -0.08600
C783        C  0.37688086  0.31885396  0.73584916     0.06700
C784        C  0.38979673  0.31611814  0.73448762    -0.13000
Br785      Br  0.39979357  0.30109443  0.70774962    -0.05100
Br786      Br  0.44113446  0.29636548  0.75463302     0.00600
Br787      Br  0.36265144  0.28534744  0.75126902     0.01000
Br788      Br  0.40132031  0.32920714  0.72966172    -0.03400
Br789      Br  0.43020617  0.29897561  0.70131274     0.01100
Br790      Br  0.41105580  0.30134471  0.76098309    -0.02700
Br791      Br  0.39197204  0.27756348  0.74356992    -0.03500
Br792      Br  0.37056254  0.33530941  0.73176288     0.00400
C793        C  0.33235373  0.27497863  0.74356162     0.01800
C794        C  0.32729110  0.26866178  0.75419357     0.04700
C795        C  0.32846007  0.25554319  0.75524372    -0.11400
C796        C  0.33495227  0.24864277  0.74599986     0.24000
C797        C  0.34054254  0.25481243  0.73578396    -0.12000
C798        C  0.33921917  0.26790788  0.73446510     0.05400
C799        C  0.33527281  0.23476974  0.74670067     0.27800
C800        C  0.34439227  0.22862519  0.75408567    -0.12700
C801        C  0.34408706  0.21546957  0.75533973     0.05900
C802        C  0.33496653  0.20841827  0.74872680    -0.08600
C803        C  0.32605839  0.21462002  0.74105896     0.06700
C804        C  0.32608785  0.22778031  0.74024997    -0.13000
Br805      Br  0.35017414  0.24514699  0.72370251    -0.05100
Br806      Br  0.31860551  0.27749842  0.76758035     0.00600
Br807      Br  0.35636981  0.20721751  0.76589123     0.01000
Br808      Br  0.31335749  0.23635960  0.73051836    -0.03400
Br809      Br  0.34779950  0.27591029  0.72059932     0.01100
Br810      Br  0.32101735  0.24681154  0.76931984    -0.02700
Br811      Br  0.35731037  0.23831463  0.76235787    -0.03500
Br812      Br  0.31337138  0.20524191  0.73204447     0.00400
C813        C  0.22625329  0.32049866  0.74137045     0.01800
C814        C  0.23266670  0.31489559  0.73107965     0.04700
C815        C  0.24590498  0.31445687  0.73095955    -0.11400
C816        C  0.25281725  0.32013092  0.74072997     0.24000
C817        C  0.24652142  0.32705314  0.75013479    -0.12000
C818        C  0.23328380  0.32735682  0.75039413     0.05400
C819        C  0.26669696  0.31863228  0.74110541     0.27800
C820        C  0.27202812  0.30769282  0.74634770    -0.12700
C821        C  0.28514335  0.30585965  0.74609642     0.05900
C822        C  0.29300821  0.31498891  0.74069240    -0.08600
C823        C  0.28759394  0.32574574  0.73506111     0.06700
C824        C  0.27449829  0.32766880  0.73548992    -0.13000
Br825      Br  0.25610188  0.33596097  0.76273845    -0.05100
Br826      Br  0.22370498  0.30803639  0.71689859     0.00600
Br827      Br  0.29218103  0.29030351  0.75203364     0.01000
Br828      Br  0.26715769  0.34262857  0.72829605    -0.03400
Br829      Br  0.22488606  0.33808477  0.76251620     0.01100
Br830      Br  0.25471933  0.30579001  0.71756566    -0.02700
Br831      Br  0.26125553  0.29511324  0.75364588    -0.03500
Br832      Br  0.29795947  0.33775457  0.72638797     0.00400
C833        C  0.22857445  0.17656260  0.74244655     0.01800
C834        C  0.23681724  0.18200557  0.73341954     0.04700
C835        C  0.24997262  0.18109358  0.73490089    -0.11400
C836        C  0.25514485  0.17508294  0.74546091     0.24000
C837        C  0.24717945  0.17023882  0.75477380    -0.12000
C838        C  0.23400098  0.17121309  0.75351858     0.05400
C839        C  0.26903498  0.17423140  0.74698890     0.27800
C840        C  0.27564288  0.16374362  0.74222841    -0.12700
C841        C  0.28881840  0.16306846  0.74339513     0.05900
C842        C  0.29546066  0.17280721  0.74953391    -0.08600
C843        C  0.28879005  0.18320550  0.75451357     0.06700
C844        C  0.27562205  0.18394848  0.75314515    -0.13000
Br845      Br  0.25455897  0.16211966  0.76928478    -0.05100
Br846      Br  0.23058177  0.19185553  0.71945262     0.00600
Br847      Br  0.29767376  0.14858475  0.73680030     0.01000
Br848      Br  0.26652411  0.19838203  0.75947563    -0.03400
Br849      Br  0.22401202  0.16559355  0.76761901     0.01100
Br850      Br  0.26113560  0.18811755  0.72244039    -0.02700
Br851      Br  0.26655920  0.15031864  0.73407266    -0.03500
Br852      Br  0.29768065  0.19676647  0.76266295     0.00400
C853        C  0.18824755  0.21305551  0.74241781     0.01800
C854        C  0.19645362  0.21943610  0.75065401     0.04700
C855        C  0.19590351  0.23262397  0.75156777    -0.11400
C856        C  0.18727863  0.23941400  0.74412905     0.24000
C857        C  0.17887329  0.23303212  0.73615377    -0.12000
C858        C  0.17931280  0.21987319  0.73532566     0.05400
C859        C  0.18753325  0.25329970  0.74404084     0.27800
C860        C  0.17890859  0.26022226  0.75135597    -0.12700
C861        C  0.17918166  0.27341782  0.75119038     0.05900
C862        C  0.18794689  0.27974893  0.74350891    -0.08600
C863        C  0.19619087  0.27275016  0.73577569     0.06700
C864        C  0.19612952  0.25955007  0.73620395    -0.13000
Br865      Br  0.16704721  0.24242566  0.72603728    -0.05100
Br866      Br  0.20912857  0.21024623  0.75986308     0.00600
Br867      Br  0.16723030  0.28273491  0.76128584     0.01000
Br868      Br  0.20793150  0.24992880  0.72619018    -0.03400
Br869      Br  0.16761105  0.21127422  0.72441156     0.01100
Br870      Br  0.20723843  0.24149360  0.76262872    -0.02700
Br871      Br  0.16672149  0.25156248  0.76157495    -0.03500
Br872      Br  0.20785093  0.28106225  0.72486865     0.00400
C873        C  0.15326530  0.18008611  0.73175740     0.01800
C874        C  0.14615882  0.17584314  0.72132547     0.04700
C875        C  0.13337481  0.17926996  0.72009153    -0.11400
C876        C  0.12761789  0.18725533  0.72903574     0.24000
C877        C  0.13469751  0.19179563  0.73925910    -0.12000
C878        C  0.14739213  0.18814962  0.74073038     0.05400
C879        C  0.11396461  0.19040409  0.72789361     0.27800
C880        C  0.10990971  0.20037426  0.72017069    -0.12700
C881        C  0.09694403  0.20244819  0.71806269     0.05900
C882        C  0.08789597  0.19459793  0.72372810    -0.08600
C883        C  0.09208287  0.18445317  0.73131855     0.06700
C884        C  0.10499436  0.18270961  0.73375612    -0.13000
Br885      Br  0.12691458  0.20322241  0.75112795    -0.05100
Br886      Br  0.15366960  0.16500223  0.70882360     0.00600
Br887      Br  0.09180387  0.21489020  0.70599949     0.01000
Br888      Br  0.11052403  0.16953163  0.74493946    -0.03400
Br889      Br  0.15672622  0.19501003  0.75476918     0.01100
Br890      Br  0.12357240  0.17293771  0.70615843    -0.02700
Br891      Br  0.12224990  0.21082946  0.71206874    -0.03500
Br892      Br  0.08027749  0.17240606  0.73802629     0.00400
C893        C  0.06774453  0.27442476  0.76367622     0.01800
C894        C  0.06433573  0.26312152  0.76973157     0.04700
C895        C  0.06409322  0.25178021  0.76294831    -0.11400
C896        C  0.06988401  0.25105544  0.75103998     0.24000
C897        C  0.07522633  0.26193880  0.74580871    -0.12000
C898        C  0.07292665  0.27370398  0.75140863     0.05400
C899        C  0.06954884  0.23923332  0.74357505     0.27800
C900        C  0.07537479  0.22818848  0.74796621    -0.12700
C901        C  0.07331347  0.21675764  0.74160237     0.05900
C902        C  0.06821757  0.21675503  0.72924340    -0.08600
C903        C  0.06429228  0.22838206  0.72414822     0.06700
C904        C  0.06330998  0.23901161  0.73189620    -0.13000
Br905      Br  0.08540186  0.26078550  0.73075275    -0.05100
Br906      Br  0.06134201  0.26259168  0.78755993     0.00600
Br907      Br  0.07536765  0.20162330  0.75113079     0.01000
Br908      Br  0.05280089  0.25290987  0.72666334    -0.03400
Br909      Br  0.07499813  0.28834766  0.74109932     0.01100
Br910      Br  0.05498324  0.23764792  0.76970587    -0.02700
Br911      Br  0.08613422  0.22864401  0.76262915    -0.03500
Br912      Br  0.06200203  0.23068573  0.70639253     0.00400
C913        C  0.08738751  0.29688382  0.76732673     0.01800
C914        C  0.09704832  0.28860088  0.77129174     0.04700
C915        C  0.10973545  0.29094566  0.76801165    -0.11400
C916        C  0.11290886  0.30157501  0.76079432     0.24000
C917        C  0.10330956  0.30962851  0.75653067    -0.12000
C918        C  0.09069268  0.30744436  0.75988426     0.05400
C919        C  0.12635017  0.30488280  0.75832540     0.27800
C920        C  0.13250454  0.31358517  0.76620972    -0.12700
C921        C  0.14498707  0.31725125  0.76367750     0.05900
C922        C  0.15147331  0.31241993  0.75305384    -0.08600
C923        C  0.14515618  0.30377105  0.74503984     0.06700
C924        C  0.13272872  0.29995774  0.74777151    -0.13000
Br925      Br  0.10760330  0.32392081  0.74625333    -0.05100
Br926      Br  0.09327537  0.27472087  0.78218813     0.00600
Br927      Br  0.15287717  0.32927802  0.77469926     0.01000
Br928      Br  0.12436299  0.28780496  0.73717646    -0.03400
Br929      Br  0.07795957  0.31905822  0.75394424     0.01100
Br930      Br  0.12295441  0.27992650  0.77381745    -0.02700
Br931      Br  0.12367411  0.32054530  0.78053697    -0.03500
Br932      Br  0.15356100  0.29640383  0.73064194     0.00400
C933        C  0.97775195  0.21688585  0.70475376     0.01800
C934        C  0.98392188  0.22842575  0.70713278     0.04700
C935        C  0.99676401  0.22854884  0.71067382    -0.11400
C936        C  0.00360280  0.21720487  0.71154021     0.24000
C937        C  0.99744006  0.20571125  0.70940865    -0.12000
C938        C  0.98468682  0.20550663  0.70594549     0.05400
C939        C  0.01753319  0.21700548  0.71332913     0.27800
C940        C  0.02527748  0.21581069  0.70265084    -0.12700
C941        C  0.03768266  0.21129029  0.70385185     0.05900
C942        C  0.04280495  0.20867200  0.71591740    -0.08600
C943        C  0.03534160  0.21106806  0.72670670     0.06700
C944        C  0.02274782  0.21520534  0.72538521    -0.13000
Br945      Br  0.00676141  0.19011366  0.71074837    -0.05100
Br946      Br  0.97542775  0.24413427  0.70406777     0.00600
Br947      Br  0.04727093  0.20799308  0.68868424     0.01000
Br948      Br  0.01218760  0.21748423  0.73998384    -0.03400
Br949      Br  0.97697002  0.18933614  0.70267613     0.01100
Br950      Br  0.00524156  0.24422806  0.71381020    -0.02700
Br951      Br  0.01842387  0.21948743  0.68622143    -0.03500
Br952      Br  0.04157499  0.20707347  0.74322590     0.00400
C953        C  0.97654016  0.27360989  0.78549082     0.01800
C954        C  0.98235670  0.28537430  0.78312826     0.04700
C955        C  0.99507880  0.28596291  0.77944581    -0.11400
C956        C  0.00238973  0.27493725  0.77848122     0.24000
C957        C  0.99666145  0.26319799  0.78053059    -0.12000
C958        C  0.98387543  0.26253181  0.78421509     0.05400
C959        C  0.01638438  0.27611854  0.77733715     0.27800
C960        C  0.02223530  0.27721604  0.76548678    -0.12700
C961        C  0.03493505  0.28111926  0.76459007     0.05900
C962        C  0.04194956  0.28391479  0.77560093    -0.08600
C963        C  0.03607804  0.28226822  0.78750175     0.06700
C964        C  0.02351978  0.27816316  0.78831303    -0.13000
Br965      Br  0.00666211  0.24810773  0.77901477    -0.05100
Br966      Br  0.97333808  0.30101999  0.78573337     0.00600
Br967      Br  0.04191548  0.28419223  0.74819633     0.01000
Br968      Br  0.01567693  0.27610289  0.80458580    -0.03400
Br969      Br  0.97721795  0.24661509  0.78946769     0.01100
Br970      Br  0.00287298  0.30206107  0.77644862    -0.02700
Br971      Br  0.01244515  0.27416943  0.75049830    -0.03500
Br972      Br  0.04486118  0.28624647  0.80298056     0.00400
C973        C  0.95168433  0.26074998  0.77526314     0.01800
C974        C  0.94752012  0.24811911  0.77479533     0.04700
C975        C  0.94647079  0.24178766  0.76314065    -0.11400
C976        C  0.95129061  0.24725958  0.75207379     0.24000
C977        C  0.95608258  0.25957112  0.75262206    -0.12000
C978        C  0.95519032  0.26658728  0.76383869     0.05400
C979        C  0.95133916  0.24014002  0.73991064     0.27800
C980        C  0.95858690  0.22910894  0.73858037    -0.12700
C981        C  0.95773421  0.22191442  0.72748994     0.05900
C982        C  0.95220205  0.22704598  0.71651242    -0.08600
C983        C  0.94574645  0.23869453  0.71762986     0.06700
C984        C  0.94425487  0.24442767  0.72953824    -0.13000
Br985      Br  0.96438326  0.26674794  0.73815400    -0.05100
Br986      Br  0.94440572  0.23875309  0.78990007     0.00600
Br987      Br  0.96248843  0.20449206  0.72826780     0.01000
Br988      Br  0.93241579  0.25810190  0.73164183    -0.03400
Br989      Br  0.95729774  0.28448464  0.76290898     0.01100
Br990      Br  0.93829545  0.22561342  0.76233870    -0.02700
Br991      Br  0.97020491  0.22407627  0.75162437    -0.03500
Br992      Br  0.94036243  0.24797400  0.70309060     0.00400
C993        C  0.31083300  0.06875659  0.75214661     0.01800
C994        C  0.31779771  0.07416772  0.76208689     0.04700
C995        C  0.32050283  0.08709240  0.76206570    -0.11400
C996        C  0.31631356  0.09471610  0.75208667     0.24000
C997        C  0.30920160  0.08938862  0.74222472    -0.12000
C998        C  0.30673427  0.07637459  0.74210398     0.05400
C999        C  0.31982907  0.10822833  0.75190047     0.27800
C1000       C  0.31278241  0.11703988  0.75889334    -0.12700
C1001       C  0.31683189  0.12959916  0.75983394     0.05900
C1002       C  0.32775140  0.13353614  0.75333672    -0.08600
C1003       C  0.33474839  0.12467891  0.74627289     0.06700
C1004       C  0.33078182  0.11207977  0.74554350    -0.13000
Br1005     Br  0.30309424  0.09992257  0.72880568    -0.05100
Br1006     Br  0.32372797  0.06379534  0.77572643     0.00600
Br1007     Br  0.30703837  0.14134593  0.76975252     0.01000
Br1008     Br  0.34028471  0.10004421  0.73574482    -0.03400
Br1009     Br  0.29845303  0.06882738  0.72785490     0.01100
Br1010     Br  0.33024903  0.09436736  0.77556938    -0.02700
Br1011     Br  0.29734087  0.11185788  0.76685360    -0.03500
Br1012     Br  0.35018443  0.12963253  0.73815097     0.00400
C1013       C  0.28791646  0.05007901  0.75916613     0.01800
C1014       C  0.27865193  0.04068950  0.75805950     0.04700
C1015       C  0.26841235  0.04260269  0.75001738    -0.11400
C1016       C  0.26576158  0.05477802  0.74561688     0.24000
C1017       C  0.27279180  0.06495466  0.75040877    -0.12000
C1018       C  0.28341774  0.06251268  0.75797417     0.05400
C1019       C  0.25460202  0.05665509  0.73747811     0.27800
C1020       C  0.25535540  0.05351003  0.72464478    -0.12700
C1021       C  0.24434977  0.05257096  0.71737057     0.05900
C1022       C  0.23240501  0.05472007  0.72286520    -0.08600
C1023       C  0.23181141  0.05874012  0.73560493     0.06700
C1024       C  0.24285749  0.05951550  0.74289847    -0.13000
Br1025     Br  0.26800861  0.08203267  0.74678491    -0.05100
Br1026     Br  0.27540218  0.03015271  0.77232077     0.00600
Br1027     Br  0.24592412  0.04873398  0.69975124     0.01000
Br1028     Br  0.24186922  0.06347610  0.76065807    -0.03400
Br1029     Br  0.28820975  0.07472421  0.77045388     0.01100
Br1030     Br  0.25755987  0.02866212  0.74596752    -0.02700
Br1031     Br  0.27153624  0.04977213  0.71724946    -0.03500
Br1032     Br  0.21604092  0.06240091  0.74368187     0.00400
C1033       C  0.19544502  0.13877681  0.72928534     0.01800
C1034       C  0.19093986  0.13287908  0.71818409     0.04700
C1035       C  0.19474028  0.12052718  0.71508521    -0.11400
C1036       C  0.20296035  0.11387249  0.72306339     0.24000
C1037       C  0.20744630  0.11961730  0.73411152    -0.12000
C1038       C  0.20373549  0.13197708  0.73723473     0.05400
C1039       C  0.20601016  0.10044458  0.72044674     0.27800
C1040       C  0.19769546  0.09109043  0.72456158    -0.12700
C1041       C  0.20017701  0.07837159  0.72189598     0.05900
C1042       C  0.21133528  0.07477354  0.71547711    -0.08600
C1043       C  0.21970473  0.08421085  0.71140747     0.06700
C1044       C  0.21704001  0.09700700  0.71390054    -0.13000
Br1045     Br  0.21876586  0.11038964  0.74494217    -0.05100
Br1046     Br  0.17904947  0.14132803  0.70738474     0.00600
Br1047     Br  0.18795333  0.06593975  0.72697572     0.01000
Br1048     Br  0.22820115  0.10995311  0.70797731    -0.03400
Br1049     Br  0.21068736  0.13951038  0.75218081     0.01100
Br1050     Br  0.18865000  0.11257091  0.69990453    -0.02700
Br1051     Br  0.18271091  0.09582863  0.73373873    -0.03500
Br1052     Br  0.23415081  0.07990240  0.70137802     0.00400
C1053       C  0.29158785  0.96012101  0.77912533     0.01800
C1054       C  0.28082122  0.96757013  0.77671771     0.04700
C1055       C  0.28214277  0.97993357  0.77209753    -0.11400
C1056       C  0.29419002  0.98484425  0.76963759     0.24000
C1057       C  0.30489581  0.97726492  0.77150354    -0.12000
C1058       C  0.30366935  0.96514457  0.77655500     0.05400
C1059       C  0.29581493  0.99819363  0.76580932     0.27800
C1060       C  0.29374478  0.00186199  0.75322942    -0.12700
C1061       C  0.29620106  0.01431172  0.74950704     0.05900
C1062       C  0.30104863  0.02304944  0.75825518    -0.08600
C1063       C  0.30317159  0.01936761  0.77080662     0.06700
C1064       C  0.30026249  0.00707817  0.77465037    -0.13000
Br1065     Br  0.32136284  0.98368773  0.76736320    -0.05100
Br1066     Br  0.26432527  0.96147633  0.78087759     0.00600
Br1067     Br  0.29314323  0.01941886  0.73237270     0.01000
Br1068     Br  0.30257879  0.00233604  0.79201884    -0.03400
Br1069     Br  0.31881404  0.95557956  0.78005780     0.01100
Br1070     Br  0.26751957  0.99048255  0.76978307    -0.02700
Br1071     Br  0.28821909  0.98963361  0.74097597    -0.03500
Br1072     Br  0.30975240  0.03133466  0.78279038     0.00400
C1073       C  0.22847239  0.96222834  0.70669880     0.01800
C1074       C  0.21685289  0.96855173  0.70876844     0.04700
C1075       C  0.21661565  0.98139898  0.71202162    -0.11400
C1076       C  0.22791722  0.98813814  0.71325377     0.24000
C1077       C  0.23948136  0.98170724  0.71223465    -0.12000
C1078       C  0.23979392  0.96889650  0.70864793     0.05400
C1079       C  0.22750489  0.00217737  0.71312441     0.27800
C1080       C  0.22799031  0.00840418  0.70146966    -0.12700
C1081       C  0.22570025  0.02143134  0.70075561     0.05900
C1082       C  0.22275517  0.02850271  0.71175824    -0.08600
C1083       C  0.22240899  0.02216270  0.72346645     0.06700
C1084       C  0.22509709  0.00914620  0.72416344    -0.13000
Br1085     Br  0.25488656  0.99087891  0.71477361    -0.05100
Br1086     Br  0.20100718  0.96000677  0.70615823     0.00600
Br1087     Br  0.22553073  0.02913757  0.68427720     0.01000
Br1088     Br  0.22457183  0.00053030  0.74010502    -0.03400
Br1089     Br  0.25570766  0.96135485  0.70438203     0.01100
Br1090     Br  0.20072181  0.99013507  0.71367059    -0.02700
Br1091     Br  0.23074191  0.99875147  0.68623000    -0.03500
Br1092     Br  0.21613534  0.03047918  0.73826755     0.00400
C1093       C  0.24022444  0.93584044  0.71511690     0.01800
C1094       C  0.23512232  0.93939784  0.72692916     0.04700
C1095       C  0.24266878  0.93924610  0.73783743    -0.11400
C1096       C  0.25440052  0.93298361  0.73771188     0.24000
C1097       C  0.25852506  0.92738927  0.72638662    -0.12000
C1098       C  0.25228727  0.93008475  0.71500608     0.05400
C1099       C  0.26276167  0.93302981  0.74907842     0.27800
C1100       C  0.27465851  0.93884663  0.74859527    -0.12700
C1101       C  0.28274953  0.93839333  0.75907844     0.05900
C1102       C  0.27817244  0.93464288  0.77100689    -0.08600
C1103       C  0.26588093  0.92953874  0.77159057     0.06700
C1104       C  0.25886867  0.92754783  0.76048592    -0.13000
Br1105     Br  0.27285311  0.91615143  0.72641116    -0.05100
Br1106     Br  0.21755877  0.94327561  0.72874520     0.00600
Br1107     Br  0.30031196  0.94162278  0.75637488     0.01000
Br1108     Br  0.24400988  0.91717305  0.76093631    -0.03400
Br1109     Br  0.26171669  0.92791389  0.69974052     0.01100
Br1110     Br  0.23714262  0.94842432  0.75257955    -0.02700
Br1111     Br  0.27977287  0.94811172  0.73384248    -0.03500
Br1112     Br  0.25746592  0.92710540  0.78737410     0.00400
C1113       C  0.27651871  0.54992685  0.71944771     0.01800
C1114       C  0.28176555  0.55734682  0.72920899     0.04700
C1115       C  0.27601876  0.55774830  0.74116827    -0.11400
C1116       C  0.26521012  0.55055723  0.74357165     0.24000
C1117       C  0.25970865  0.54351667  0.73384240    -0.12000
C1118       C  0.26509315  0.54352435  0.72176178     0.05400
C1119       C  0.26031489  0.54953901  0.75659962     0.27800
C1120       C  0.26593187  0.54089667  0.76483219    -0.12700
C1121       C  0.26201697  0.54033346  0.77741439     0.05900
C1122       C  0.25172871  0.54765745  0.78171160    -0.08600
C1123       C  0.24615557  0.55644904  0.77342401     0.06700
C1124       C  0.25048441  0.55737496  0.76089212    -0.13000
Br1125     Br  0.24505200  0.53342231  0.73729484    -0.05100
Br1126     Br  0.29709162  0.56653475  0.72677054     0.00600
Br1127     Br  0.27198142  0.53073882  0.78905136     0.01000
Br1128     Br  0.24289543  0.56920016  0.74943178    -0.03400
Br1129     Br  0.25608304  0.53550019  0.70829497     0.01100
Br1130     Br  0.28318960  0.56772054  0.75458680    -0.02700
Br1131     Br  0.27896602  0.52968244  0.75874516    -0.03500
Br1132     Br  0.23278921  0.56738348  0.77900699     0.00400
C1133       C  0.30258932  0.46195236  0.72737817     0.01800
C1134       C  0.30479801  0.46751139  0.71545927     0.04700
C1135       C  0.30117435  0.47999435  0.71316869    -0.11400
C1136       C  0.29443285  0.48685550  0.72233828     0.24000
C1137       C  0.29169457  0.48122795  0.73402101    -0.12000
C1138       C  0.29621987  0.46901355  0.73673662     0.05400
C1139       C  0.29067273  0.50007031  0.71949609     0.27800
C1140       C  0.29798748  0.51016040  0.72399210    -0.12700
C1141       C  0.29621646  0.52236696  0.71911243     0.05900
C1142       C  0.28744661  0.52451168  0.70933279    -0.08600
C1143       C  0.28055915  0.51418213  0.70450172     0.06700
C1144       C  0.28146265  0.50231556  0.71024618    -0.13000
Br1145     Br  0.28195874  0.49040754  0.74634246    -0.05100
Br1146     Br  0.31248809  0.45801624  0.70184841     0.00600
Br1147     Br  0.30748421  0.53550978  0.72428731     0.01000
Br1148     Br  0.27073045  0.48873258  0.70481154    -0.03400
Br1149     Br  0.29483017  0.46269311  0.75363309     0.01100
Br1150     Br  0.30598552  0.48792066  0.69752874    -0.02700
Br1151     Br  0.31129562  0.50697652  0.73595717    -0.03500
Br1152     Br  0.27134872  0.51547608  0.68885760     0.00400
C1153       C  0.32626647  0.35034388  0.73911101     0.01800
C1154       C  0.31700779  0.35526370  0.74747267     0.04700
C1155       C  0.31333837  0.36797018  0.74676274    -0.11400
C1156       C  0.31892595  0.37594371  0.73789585     0.24000
C1157       C  0.32800831  0.37113464  0.72948133    -0.12000
C1158       C  0.33155739  0.35835828  0.72994854     0.05400
C1159       C  0.31577189  0.38957103  0.73785366     0.27800
C1160       C  0.30621364  0.39429095  0.72998545    -0.12700
C1161       C  0.30432564  0.40739035  0.72886953     0.05900
C1162       C  0.31168942  0.41584077  0.73605406    -0.08600
C1163       C  0.32070046  0.41088204  0.74462051     0.06700
C1164       C  0.32277536  0.39785497  0.74538791    -0.13000
Br1165     Br  0.33568707  0.38222536  0.71740045    -0.05100
Br1166     Br  0.30842591  0.34463931  0.75943274     0.00600
Br1167     Br  0.29271890  0.41344631  0.71639087     0.01000
Br1168     Br  0.33567656  0.39126215  0.75638447    -0.03400
Br1169     Br  0.34389563  0.35212623  0.71814422     0.01100
Br1170     Br  0.30049529  0.37458576  0.75785208    -0.02700
Br1171     Br  0.29611915  0.38267441  0.72035814    -0.03500
Br1172     Br  0.33064959  0.42184175  0.75526641     0.00400
C1173       C  0.21401994  0.46565138  0.76795901     0.01800
C1174       C  0.21230631  0.47105805  0.78007747     0.04700
C1175       C  0.21757183  0.48277777  0.78299556    -0.11400
C1176       C  0.22508549  0.48903940  0.77412011     0.24000
C1177       C  0.22683477  0.48377427  0.76203933    -0.12000
C1178       C  0.22102298  0.47226748  0.75883811     0.05400
C1179       C  0.23124630  0.50098715  0.77797584     0.27800
C1180       C  0.22519914  0.51256391  0.77578010    -0.12700
C1181       C  0.22911531  0.52347777  0.78225361     0.05900
C1182       C  0.23928752  0.52296841  0.79083736    -0.08600
C1183       C  0.24518485  0.51120363  0.79311005     0.06700
C1184       C  0.24156495  0.50045964  0.78624577    -0.13000
Br1185     Br  0.23711166  0.49243234  0.74993088    -0.05100
Br1186     Br  0.20340134  0.46218263  0.79322717     0.00600
Br1187     Br  0.21882149  0.53833626  0.78118339     0.01000
Br1188     Br  0.25008827  0.48459557  0.78881221    -0.03400
Br1189     Br  0.22185531  0.46624118  0.74174041     0.01100
Br1190     Br  0.21444915  0.49036632  0.79929941    -0.02700
Br1191     Br  0.21083236  0.51315683  0.76466911    -0.03500
Br1192     Br  0.25707981  0.50906423  0.80670282     0.00400
C1193       C  0.22571937  0.43978723  0.75836779     0.01800
C1194       C  0.23588467  0.44343246  0.76618931     0.04700
C1195       C  0.24831991  0.44296369  0.76161294    -0.11400
C1196       C  0.25100991  0.43696834  0.75003099     0.24000
C1197       C  0.24103888  0.43195017  0.74290445    -0.12000
C1198       C  0.22850511  0.43434086  0.74647865     0.05400
C1199       C  0.26419127  0.43635416  0.74516010     0.27800
C1200       C  0.26753234  0.44265884  0.73399923    -0.12700
C1201       C  0.27984631  0.44161542  0.72924254     0.05900
C1202       C  0.28963931  0.43680081  0.73690637    -0.08600
C1203       C  0.28629660  0.43118634  0.74851795     0.06700
C1204       C  0.27355758  0.42975229  0.75181485    -0.13000
Br1205     Br  0.24453434  0.42178551  0.72817135    -0.05100
Br1206     Br  0.23325433  0.44820874  0.78350105     0.00600
Br1207     Br  0.28262756  0.44554965  0.71179795     0.01000
Br1208     Br  0.26896292  0.41875153  0.76547223    -0.03400
Br1209     Br  0.21563565  0.43190652  0.73401882     0.01100
Br1210     Br  0.26155170  0.45112774  0.77103089    -0.02700
Br1211     Br  0.25554728  0.45337754  0.72551397    -0.03500
Br1212     Br  0.29864985  0.42741278  0.76114519     0.00400
C1213       C  0.20333139  0.42006368  0.75979334     0.01800
C1214       C  0.19476894  0.41498820  0.75086583     0.04700
C1215       C  0.19370306  0.40192523  0.74932264    -0.11400
C1216       C  0.20114268  0.39375580  0.75656575     0.24000
C1217       C  0.20983548  0.39865834  0.76526836    -0.12000
C1218       C  0.21068166  0.41175889  0.76714826     0.05400
C1219       C  0.19900356  0.38002637  0.75552015     0.27800
C1220       C  0.19056966  0.37414388  0.76380541    -0.12700
C1221       C  0.18714894  0.36152792  0.76184525     0.05900
C1222       C  0.19208094  0.35469844  0.75150140    -0.08600
C1223       C  0.20082079  0.36059461  0.74338407     0.06700
C1224       C  0.20430227  0.37318810  0.74546913    -0.13000
Br1225     Br  0.22020829  0.38729449  0.77490948    -0.05100
Br1226     Br  0.18410758  0.42572528  0.74070196     0.00600
Br1227     Br  0.17530475  0.35391937  0.77317712     0.01000
Br1228     Br  0.21641259  0.38121847  0.73464057    -0.03400
Br1229     Br  0.22050047  0.41792622  0.78104078     0.01100
Br1230     Br  0.18163386  0.39507421  0.73754948    -0.02700
Br1231     Br  0.18355979  0.38352893  0.77776871    -0.03500
Br1232     Br  0.20869317  0.35143165  0.72974448     0.00400
C1233       C  0.86552547  0.25609574  0.81339550     0.01800
C1234       C  0.87243277  0.26711398  0.81646821     0.04700
C1235       C  0.88513504  0.26838283  0.81268924    -0.11400
C1236       C  0.89131573  0.25863690  0.80608397     0.24000
C1237       C  0.88463999  0.24760942  0.80315720    -0.12000
C1238       C  0.87178735  0.24644742  0.80643241     0.05400
C1239       C  0.90491310  0.25999118  0.80246323     0.27800
C1240       C  0.90836148  0.26609294  0.79120390    -0.12700
C1241       C  0.92114118  0.26885133  0.78863881     0.05900
C1242       C  0.93070625  0.26507736  0.79708969    -0.08600
C1243       C  0.92717706  0.25840243  0.80810862     0.06700
C1244       C  0.91441690  0.25590149  0.81072923    -0.13000
Br1245     Br  0.89325659  0.23407999  0.79453333    -0.05100
Br1246     Br  0.86488303  0.28059605  0.82613754     0.00600
Br1247     Br  0.92520253  0.27906898  0.77432436     0.01000
Br1248     Br  0.90982434  0.24720999  0.82596142    -0.03400
Br1249     Br  0.86277710  0.23199156  0.80011346     0.01100
Br1250     Br  0.89426702  0.28356849  0.81657472    -0.02700
Br1251     Br  0.89538966  0.27105757  0.77953025    -0.03500
Br1252     Br  0.93979828  0.25278625  0.81999078     0.00400
C1253       C  0.58488194  0.24863686  0.69811440     0.01800
C1254       C  0.59251373  0.25832594  0.70309205     0.04700
C1255       C  0.60569078  0.25788693  0.70156457    -0.11400
C1256       C  0.61130486  0.24809223  0.69459254     0.24000
C1257       C  0.60386750  0.23824734  0.68990495    -0.12000
C1258       C  0.59073700  0.23855256  0.69147872     0.05400
C1259       C  0.62482210  0.24865377  0.69108569     0.27800
C1260       C  0.62848447  0.25509367  0.68010943    -0.12700
C1261       C  0.64113359  0.25488460  0.67615643     0.05900
C1262       C  0.65018387  0.24807634  0.68309271    -0.08600
C1263       C  0.64648360  0.24179970  0.69424762     0.06700
C1264       C  0.63386183  0.24217008  0.69823134    -0.13000
Br1265     Br  0.61176325  0.22457973  0.68077880    -0.05100
Br1266     Br  0.58508926  0.27326402  0.71014161     0.00600
Br1267     Br  0.64587987  0.26352383  0.66094799     0.01000
Br1268     Br  0.62884836  0.23389988  0.71356996    -0.03400
Br1269     Br  0.58091495  0.22534229  0.68368943     0.01100
Br1270     Br  0.61614847  0.27101326  0.70845446    -0.02700
Br1271     Br  0.61603552  0.26408852  0.67041961    -0.03500
Br1272     Br  0.65865405  0.23314629  0.70462306     0.00400
C1273       C  0.64656936  0.24232498  0.81873402     0.01800
C1274       C  0.64043715  0.24996282  0.80972002     0.04700
C1275       C  0.62728260  0.24936800  0.80819679    -0.11400
C1276       C  0.62002517  0.24152048  0.81595606     0.24000
C1277       C  0.62607973  0.23393161  0.82501473    -0.12000
C1278       C  0.63932065  0.23412416  0.82621488     0.05400
C1279       C  0.60602645  0.24147348  0.81461111     0.27800
C1280       C  0.59879708  0.25128214  0.81987459    -0.12700
C1281       C  0.58566529  0.25173966  0.81798392     0.05900
C1282       C  0.57945344  0.24203664  0.81114770    -0.08600
C1283       C  0.58675128  0.23183860  0.80657410     0.06700
C1284       C  0.59997081  0.23182118  0.80786272    -0.13000
Br1285     Br  0.61615580  0.22343807  0.83591493    -0.05100
Br1286     Br  0.65002085  0.26090491  0.79892979     0.00600
Br1287     Br  0.57643124  0.26582757  0.82503613     0.01000
Br1288     Br  0.60988212  0.21838926  0.80059544    -0.03400
Br1289     Br  0.64744415  0.22341048  0.83839588     0.01100
Br1290     Br  0.61910304  0.25911382  0.79523401    -0.02700
Br1291     Br  0.60698451  0.26392681  0.83005760    -0.03500
Br1292     Br  0.57881366  0.21691577  0.80028255     0.00400
C1293       C  0.78980603  0.24983657  0.81821355     0.01800
C1294       C  0.78277011  0.25564365  0.80852183     0.04700
C1295       C  0.76954257  0.25471755  0.80835403    -0.11400
C1296       C  0.76323962  0.24800433  0.81784695     0.24000
C1297       C  0.77023936  0.24210120  0.82743934    -0.12000
C1298       C  0.78346399  0.24301514  0.82764063     0.05400
C1299       C  0.74922900  0.24741578  0.81794213     0.27800
C1300       C  0.74227482  0.25581774  0.82551917    -0.12700
C1301       C  0.72904936  0.25503982  0.82602128     0.05900
C1302       C  0.72256428  0.24617666  0.81842609    -0.08600
C1303       C  0.72962539  0.23803018  0.81049383     0.06700
C1304       C  0.74288461  0.23844783  0.81054174    -0.13000
Br1305     Br  0.76160193  0.23286315  0.84039546    -0.05100
Br1306     Br  0.79119632  0.26452784  0.79515807     0.00600
Br1307     Br  0.72014063  0.26574108  0.83780156     0.01000
Br1308     Br  0.75248768  0.22663859  0.80054359    -0.03400
Br1309     Br  0.79279325  0.23547712  0.84127233     0.01100
Br1310     Br  0.75995563  0.26270315  0.79515872    -0.02700
Br1311     Br  0.75101755  0.26840779  0.83527758    -0.03500
Br1312     Br  0.72135654  0.22675592  0.79885283     0.00400
C1313       C  0.68418462  0.24832779  0.78208973     0.01800
C1314       C  0.67590607  0.24155716  0.77421335     0.04700
C1315       C  0.67657579  0.24295639  0.76104946    -0.11400
C1316       C  0.68534657  0.25128262  0.75571299     0.24000
C1317       C  0.69335451  0.25831694  0.76356872    -0.12000
C1318       C  0.69296990  0.25666391  0.77670000     0.05400
C1319       C  0.68663237  0.25205126  0.74181150     0.27800
C1320       C  0.69580569  0.24470438  0.73563294    -0.12700
C1321       C  0.69658627  0.24472885  0.72241043     0.05900
C1322       C  0.68801772  0.25195722  0.71524225    -0.08600
C1323       C  0.67905451  0.25962224  0.72150162     0.06700
C1324       C  0.67848548  0.25975459  0.73475973    -0.13000
Br1325     Br  0.70493626  0.27012934  0.75623940    -0.05100
Br1326     Br  0.66340164  0.23061011  0.78139651     0.00600
Br1327     Br  0.70970967  0.23507534  0.71424707     0.01000
Br1328     Br  0.66643362  0.27033156  0.74337369    -0.03400
Br1329     Br  0.70522869  0.26509497  0.78713717     0.01100
Br1330     Br  0.66558592  0.23336737  0.75022936    -0.02700
Br1331     Br  0.70718934  0.23442501  0.74537660    -0.03500
Br1332     Br  0.66687687  0.26927461  0.71207331     0.00400
C1333       C  0.86557520  0.22816288  0.68133781     0.01800
C1334       C  0.87170392  0.21639461  0.67971477     0.04700
C1335       C  0.88430675  0.21479042  0.68358489    -0.11400
C1336       C  0.89092544  0.22482704  0.68912871     0.24000
C1337       C  0.88493875  0.23651155  0.69080219    -0.12000
C1338       C  0.87239240  0.23826063  0.68690437     0.05400
C1339       C  0.90464496  0.22361858  0.69169675     0.27800
C1340       C  0.90917017  0.21860053  0.70311319    -0.12700
C1341       C  0.92223540  0.21674659  0.70493322     0.05900
C1342       C  0.93087952  0.22068895  0.69563707    -0.08600
C1343       C  0.92618512  0.22651645  0.68455881     0.06700
C1344       C  0.91319155  0.22758228  0.68247193    -0.13000
Br1345     Br  0.89418351  0.25020827  0.69838119    -0.05100
Br1346     Br  0.86330441  0.20249790  0.67155526     0.00600
Br1347     Br  0.92795575  0.20782020  0.71958828     0.01000
Br1348     Br  0.90697745  0.23415123  0.66668705    -0.03400
Br1349     Br  0.86484149  0.25460848  0.68983135     0.01100
Br1350     Br  0.89278052  0.19891138  0.68096006    -0.02700
Br1351     Br  0.89734894  0.21407635  0.71607663    -0.03500
Br1352     Br  0.93747523  0.23348580  0.67212182     0.00400
C1353       C  0.79105758  0.24110217  0.68034049     0.01800
C1354       C  0.78294446  0.23268043  0.68678504     0.04700
C1355       C  0.76990893  0.23492345  0.68703309    -0.11400
C1356       C  0.76489083  0.24557523  0.68110265     0.24000
C1357       C  0.77281970  0.25440449  0.67547482    -0.12000
C1358       C  0.78586001  0.25230829  0.67511165     0.05400
C1359       C  0.75116463  0.24706738  0.67993581     0.27800
C1360       C  0.74500762  0.24169996  0.66950897    -0.12700
C1361       C  0.73196109  0.24303223  0.66824768     0.05900
C1362       C  0.72504506  0.24959455  0.67747849    -0.08600
C1363       C  0.73128671  0.25548239  0.68762209     0.06700
C1364       C  0.74436959  0.25410463  0.68890862    -0.13000
Br1365     Br  0.76553986  0.26925241  0.66788453    -0.05100
Br1366     Br  0.78926195  0.21829800  0.69596382     0.00600
Br1367     Br  0.72366130  0.23645279  0.65352383     0.01000
Br1368     Br  0.75302436  0.26159512  0.70301792    -0.03400
Br1369     Br  0.79598356  0.26499950  0.66695701     0.01100
Br1370     Br  0.75869573  0.22335054  0.69534666    -0.02700
Br1371     Br  0.75450515  0.23245253  0.65700841    -0.03500
Br1372     Br  0.72196672  0.26517032  0.69990447     0.00400
C1373       C  0.82685895  0.25024657  0.78071349     0.01800
C1374       C  0.83534158  0.25722951  0.77334720     0.04700
C1375       C  0.83539485  0.25573807  0.76021865    -0.11400
C1376       C  0.82732376  0.24695330  0.75452112     0.24000
C1377       C  0.81877190  0.24005062  0.76182650    -0.12000
C1378       C  0.81841753  0.24180811  0.77491971     0.05400
C1379       C  0.82801705  0.24480962  0.74083628     0.27800
C1380       C  0.81972804  0.25124375  0.73277962    -0.12700
C1381       C  0.82041712  0.24923508  0.71974210     0.05900
C1382       C  0.82927638  0.24062771  0.71481743    -0.08600
C1383       C  0.83763817  0.23425777  0.72287787     0.06700
C1384       C  0.83706244  0.23642420  0.73590710    -0.13000
Br1385     Br  0.80764930  0.22812930  0.75384621    -0.05100
Br1386     Br  0.84753666  0.26813792  0.78121096     0.00600
Br1387     Br  0.80888853  0.25794897  0.70872374     0.01000
Br1388     Br  0.84867683  0.22800767  0.74704723    -0.03400
Br1389     Br  0.80609753  0.23291016  0.78480643     0.01100
Br1390     Br  0.84658106  0.26560558  0.74995524    -0.02700
Br1391     Br  0.80739281  0.26271541  0.73968646    -0.03500
Br1392     Br  0.85015650  0.22293900  0.71603016     0.00400
C1393       C  0.27933122  0.63603562  0.68304440     0.01800
C1394       C  0.28459991  0.63304311  0.69493044     0.04700
C1395       C  0.28511511  0.62044630  0.69906165    -0.11400
C1396       C  0.28113057  0.61062973  0.69107118     0.24000
C1397       C  0.27614530  0.61355781  0.67912816    -0.12000
C1398       C  0.27475020  0.62618577  0.67539012     0.05400
C1399       C  0.28233358  0.59719878  0.69500299     0.27800
C1400       C  0.29413946  0.59116684  0.69461046    -0.12700
C1401       C  0.29509783  0.57814718  0.69680638     0.05900
C1402       C  0.28416782  0.57085030  0.69900203    -0.08600
C1403       C  0.27238085  0.57701096  0.69964682     0.06700
C1404       C  0.27154747  0.59016748  0.69806747    -0.13000
Br1405     Br  0.27144308  0.60017264  0.66772808    -0.05100
Br1406     Br  0.29052913  0.64615786  0.70601509     0.00600
Br1407     Br  0.31157922  0.57034443  0.69647783     0.01000
Br1408     Br  0.25549203  0.59859969  0.69950678    -0.03400
Br1409     Br  0.26643937  0.62979519  0.65978099     0.01100
Br1410     Br  0.29093948  0.61658642  0.71583213    -0.02700
Br1411     Br  0.30896903  0.60064221  0.69027018    -0.03500
Br1412     Br  0.25711941  0.56753573  0.70103089     0.00400
C1413       C  0.27904421  0.85016499  0.81032637     0.01800
C1414       C  0.28970667  0.85724855  0.81397991     0.04700
C1415       C  0.29112294  0.86978417  0.80986912    -0.11400
C1416       C  0.28203294  0.87535419  0.80197155     0.24000
C1417       C  0.27158100  0.86831322  0.79806409    -0.12000
C1418       C  0.27004391  0.85582390  0.80216424     0.05400
C1419       C  0.28288126  0.88894134  0.79863228     0.27800
C1420       C  0.27788179  0.89799178  0.80693074    -0.12700
C1421       C  0.27903689  0.91087758  0.80427075     0.05900
C1422       C  0.28509348  0.91493970  0.79307671    -0.08600
C1423       C  0.28990898  0.90578034  0.78465342     0.06700
C1424       C  0.28865088  0.89283757  0.78735696    -0.13000
Br1425     Br  0.25929790  0.87598975  0.78706644    -0.05100
Br1426     Br  0.30223740  0.85015776  0.82503825     0.00600
Br1427     Br  0.27243964  0.92287899  0.81638012     0.01000
Br1428     Br  0.29516764  0.88034231  0.77584661    -0.03400
Br1429     Br  0.25586508  0.84648816  0.79564483     0.01100
Br1430     Br  0.30541846  0.87955787  0.81524218    -0.02700
Br1431     Br  0.26963180  0.89261029  0.82218496    -0.03500
Br1432     Br  0.29951771  0.91075215  0.77017819     0.00400
C1433       C  0.25441566  0.63352104  0.81641924     0.01800
C1434       C  0.26111745  0.62501933  0.82415453     0.04700
C1435       C  0.26060669  0.61194365  0.82175019    -0.11400
C1436       C  0.25381865  0.60727998  0.81131852     0.24000
C1437       C  0.24752556  0.61576809  0.80333934    -0.12000
C1438       C  0.24753737  0.62875853  0.80602423     0.05400
C1439       C  0.25247204  0.59344300  0.80917523     0.27800
C1440       C  0.26203882  0.58638095  0.80321409    -0.12700
C1441       C  0.26072981  0.57324482  0.80153193     0.05900
C1442       C  0.24944164  0.56717976  0.80502748    -0.08600
C1443       C  0.23964009  0.57450537  0.81047549     0.06700
C1444       C  0.24132281  0.58741582  0.81286770    -0.13000
Br1445     Br  0.23904351  0.60948182  0.78852577    -0.05100
Br1446     Br  0.27058525  0.63116868  0.83838933     0.00600
Br1447     Br  0.27487358  0.56371180  0.79543497     0.01000
Br1448     Br  0.22837299  0.59691828  0.82147766    -0.03400
Br1449     Br  0.23839708  0.63994116  0.79500347     0.01100
Br1450     Br  0.26899546  0.60032632  0.83287211    -0.02700
Br1451     Br  0.27696041  0.59480951  0.79739791    -0.03500
Br1452     Br  0.22352841  0.56708216  0.81439151     0.00400
C1453       C  0.25905754  0.67049845  0.78063130     0.01800
C1454       C  0.25303122  0.67996646  0.77349147     0.04700
C1455       C  0.25494178  0.68057980  0.76038193    -0.11400
C1456       C  0.26285403  0.67177909  0.75435257     0.24000
C1457       C  0.26863234  0.66217035  0.76139385    -0.12000
C1458       C  0.26666751  0.66145512  0.77447103     0.05400
C1459       C  0.26509196  0.67252529  0.74056970     0.27800
C1460       C  0.25758689  0.66552570  0.73224767    -0.12700
C1461       C  0.26007465  0.66562967  0.71923109     0.05900
C1462       C  0.26987650  0.67320886  0.71429737    -0.08600
C1463       C  0.27773712  0.67982529  0.72286889     0.06700
C1464       C  0.27518879  0.67960271  0.73589967    -0.13000
Br1465     Br  0.27936594  0.65006046  0.75303788    -0.05100
Br1466     Br  0.24263928  0.69254101  0.78160900     0.00600
Br1467     Br  0.25078456  0.65410381  0.70862605     0.01000
Br1468     Br  0.28553968  0.68897277  0.74755957    -0.03400
Br1469     Br  0.27397874  0.64769009  0.78379315     0.01100
Br1470     Br  0.24693437  0.69360669  0.75061675    -0.02700
Br1471     Br  0.24393503  0.65561567  0.73886126    -0.03500
Br1472     Br  0.29233705  0.68893958  0.71730789     0.00400
C1473       C  0.26768183  0.77556565  0.81769169     0.01800
C1474       C  0.27671317  0.76737376  0.82311880     0.04700
C1475       C  0.27508933  0.75425748  0.82245473    -0.11400
C1476       C  0.26422776  0.74918610  0.81688479     0.24000
C1477       C  0.25488212  0.75722410  0.81209402    -0.12000
C1478       C  0.25645208  0.77035628  0.81262561     0.05400
C1479       C  0.26230933  0.73537360  0.81672621     0.27800
C1480       C  0.26731888  0.72798881  0.80688182    -0.12700
C1481       C  0.26612004  0.71481928  0.80717217     0.05900
C1482       C  0.25936061  0.70905080  0.81700442    -0.08600
C1483       C  0.25379898  0.71653127  0.82651155     0.06700
C1484       C  0.25554800  0.72963104  0.82653256    -0.13000
Br1485     Br  0.23990371  0.75006402  0.80471451    -0.05100
Br1486     Br  0.29066500  0.77389829  0.83277811     0.00600
Br1487     Br  0.27349905  0.70474066  0.79391866     0.01000
Br1488     Br  0.24890543  0.73977288  0.84012051    -0.03400
Br1489     Br  0.24280132  0.78077928  0.80658095     0.01100
Br1490     Br  0.28770974  0.74308912  0.82926567    -0.02700
Br1491     Br  0.27567957  0.73600631  0.79296040    -0.03500
Br1492     Br  0.24408168  0.70887737  0.83975419     0.00400
C1493       C  0.24438530  0.85166800  0.67878932     0.01800
C1494       C  0.23353677  0.85805042  0.67444316     0.04700
C1495       C  0.23157648  0.87082369  0.67754812    -0.11400
C1496       C  0.24038746  0.87733174  0.68502356     0.24000
C1497       C  0.25117293  0.87102873  0.68940970    -0.12000
C1498       C  0.25316491  0.85825988  0.68638498     0.05400
C1499       C  0.23853408  0.89094722  0.68786755     0.27800
C1500       C  0.24390700  0.90000888  0.67993309    -0.12700
C1501       C  0.24148335  0.91287266  0.68197235     0.05900
C1502       C  0.23418566  0.91687904  0.69245900    -0.08600
C1503       C  0.22873965  0.90773926  0.70033172     0.06700
C1504       C  0.23102037  0.89483235  0.69811824    -0.13000
Br1505     Br  0.26317030  0.88000498  0.69968659    -0.05100
Br1506     Br  0.22152175  0.84954245  0.66381728     0.00600
Br1507     Br  0.24809377  0.92490005  0.67006863     0.01000
Br1508     Br  0.22358092  0.88235699  0.70888917    -0.03400
Br1509     Br  0.26761425  0.84978753  0.69348538     0.01100
Br1510     Br  0.21684340  0.87955617  0.67148461    -0.02700
Br1511     Br  0.25451382  0.89468661  0.66612266    -0.03500
Br1512     Br  0.21683800  0.91270621  0.71308560     0.00400
C1513       C  0.25817578  0.81618709  0.71241476     0.01800
C1514       C  0.26912433  0.81033472  0.71727152     0.04700
C1515       C  0.27164337  0.81067651  0.73028811    -0.11400
C1516       C  0.26321322  0.81666564  0.73861128     0.24000
C1517       C  0.25251506  0.82285654  0.73381592    -0.12000
C1518       C  0.25003998  0.82272692  0.72075832     0.05400
C1519       C  0.26536258  0.81581440  0.75243861     0.27800
C1520       C  0.26132587  0.80507987  0.75900175    -0.12700
C1521       C  0.26408192  0.80374226  0.77189473     0.05900
C1522       C  0.27036872  0.81336707  0.77847697    -0.08600
C1523       C  0.27493919  0.82383165  0.77177154     0.06700
C1524       C  0.27228836  0.82513646  0.75882666    -0.13000
Br1525     Br  0.24125341  0.83144832  0.74524121    -0.05100
Br1526     Br  0.28045400  0.80113242  0.70636011     0.00600
Br1527     Br  0.26060926  0.78810410  0.78014450     0.01000
Br1528     Br  0.27811566  0.83967268  0.74978377    -0.03400
Br1529     Br  0.23582068  0.83209620  0.71437332     0.01100
Br1530     Br  0.28660381  0.80272834  0.73688366    -0.02700
Br1531     Br  0.25202820  0.79218277  0.75024111    -0.03500
Br1532     Br  0.28534400  0.83609352  0.78011035     0.00400
C1533       C  0.25729272  0.77694437  0.67430838     0.01800
C1534       C  0.26565972  0.77189805  0.66517051     0.04700
C1535       C  0.26806320  0.75886372  0.66469807    -0.11400
C1536       C  0.26181204  0.75069428  0.67296724     0.24000
C1537       C  0.25318230  0.75558942  0.68178570    -0.12000
C1538       C  0.25108882  0.76865191  0.68264501     0.05400
C1539       C  0.26477840  0.73700673  0.67290001     0.27800
C1540       C  0.25899382  0.72886216  0.66418216    -0.12700
C1541       C  0.26153589  0.71583742  0.66450448     0.05900
C1542       C  0.26961402  0.71080302  0.67384805    -0.08600
C1543       C  0.27554457  0.71910742  0.68241718     0.06700
C1544       C  0.27323049  0.73212868  0.68183965    -0.13000
Br1545     Br  0.24433570  0.74426015  0.69281328    -0.05100
Br1546     Br  0.27342559  0.78254018  0.65270411     0.00600
Br1547     Br  0.25437668  0.70512455  0.65165554     0.01000
Br1548     Br  0.28149389  0.74341498  0.69347326    -0.03400
Br1549     Br  0.24028329  0.77499679  0.69587477     0.01100
Br1550     Br  0.28007862  0.75210289  0.65281026    -0.02700
Br1551     Br  0.24741557  0.73562362  0.65193452    -0.03500
Br1552     Br  0.28631895  0.71285397  0.69554752     0.00400
C1553       C  0.28878899  0.73235153  0.44184471     0.01800
C1554       C  0.28435081  0.74326519  0.43556782     0.04700
C1555       C  0.27137130  0.74520287  0.43363297    -0.11400
C1556       C  0.26256448  0.73748337  0.43970307     0.24000
C1557       C  0.26683610  0.72673439  0.44615779    -0.12000
C1558       C  0.27973569  0.72366418  0.44632201     0.05400
C1559       C  0.24894357  0.74098603  0.43987985     0.27800
C1560       C  0.24483862  0.75180379  0.44643538    -0.12700
C1561       C  0.23198412  0.75501609  0.44669489     0.05900
C1562       C  0.22282923  0.74630187  0.44246235    -0.08600
C1563       C  0.22707155  0.73517145  0.43636846     0.06700
C1564       C  0.23997121  0.73321725  0.43404558    -0.13000
Br1565     Br  0.25512136  0.71653203  0.45551558    -0.05100
Br1566     Br  0.29545207  0.75676023  0.43127011     0.00600
Br1567     Br  0.22748651  0.77174340  0.45209821     0.01000
Br1568     Br  0.24539405  0.71971082  0.42307608    -0.03400
Br1569     Br  0.28442101  0.70716367  0.45208892     0.01100
Br1570     Br  0.26556494  0.75869251  0.42293523    -0.02700
Br1571     Br  0.25668227  0.76192207  0.45577708    -0.03500
Br1572     Br  0.21587837  0.72142513  0.43304630     0.00400
C1573       C  0.28020850  0.70200053  0.52741170     0.01800
C1574       C  0.28869915  0.71218580  0.52678642     0.04700
C1575       C  0.29080916  0.71844884  0.51531493    -0.11400
C1576       C  0.28478128  0.71438913  0.50423625     0.24000
C1577       C  0.27603962  0.70451517  0.50480843    -0.12000
C1578       C  0.27401343  0.69809787  0.51621593     0.05400
C1579       C  0.28965271  0.71855891  0.49179023     0.27800
C1580       C  0.28596739  0.73011903  0.48643716    -0.12700
C1581       C  0.29146273  0.73419678  0.47504734     0.05900
C1582       C  0.30027964  0.72647942  0.46872449    -0.08600
C1583       C  0.30387817  0.71485613  0.47414249     0.06700
C1584       C  0.29866075  0.71099517  0.48561825    -0.13000
Br1585     Br  0.26760403  0.69921922  0.48958439    -0.05100
Br1586     Br  0.29944509  0.71609677  0.54079752     0.00600
Br1587     Br  0.28773348  0.75072645  0.46873796     0.01000
Br1588     Br  0.30414232  0.69535463  0.49309459    -0.03400
Br1589     Br  0.26376957  0.68313015  0.51586709     0.01100
Br1590     Br  0.30294157  0.73188740  0.51444049    -0.02700
Br1591     Br  0.27366108  0.74043728  0.49494727    -0.03500
Br1592     Br  0.31557117  0.70371269  0.46558110     0.00400
C1593       C  0.27787603  0.68777616  0.57258785     0.01800
C1594       C  0.28942162  0.68526626  0.57879980     0.04700
C1595       C  0.28973352  0.68333822  0.59189068    -0.11400
C1596       C  0.27857138  0.68399333  0.59897900     0.24000
C1597       C  0.26711562  0.68690750  0.59293198    -0.12000
C1598       C  0.26671848  0.68858485  0.57975651     0.05400
C1599       C  0.27881329  0.68101473  0.61268006     0.27800
C1600       C  0.27490246  0.66911332  0.61687317    -0.12700
C1601       C  0.27463786  0.66640399  0.62985020     0.05900
C1602       C  0.27898259  0.67528354  0.63874780    -0.08600
C1603       C  0.28350416  0.68700150  0.63441795     0.06700
C1604       C  0.28307749  0.68996270  0.62148915    -0.13000
Br1605     Br  0.25191296  0.68828672  0.60277837    -0.05100
Br1606     Br  0.30505094  0.68472696  0.56945986     0.00600
Br1607     Br  0.26847079  0.65040681  0.63525398     0.01000
Br1608     Br  0.28794489  0.70644921  0.61579128    -0.03400
Br1609     Br  0.25072852  0.69088636  0.57161514     0.01100
Br1610     Br  0.30546203  0.67943885  0.60012156    -0.02700
Br1611     Br  0.26997543  0.65648728  0.60472695    -0.03500
Br1612     Br  0.28979539  0.69938328  0.64613156     0.00400
C1613       C  0.23198092  0.77931619  0.52742438     0.01800
C1614       C  0.22336910  0.76921342  0.52712324     0.04700
C1615       C  0.22084905  0.76277186  0.51574425    -0.11400
C1616       C  0.22679176  0.76638874  0.50447822     0.24000
C1617       C  0.23573997  0.77610039  0.50478762    -0.12000
C1618       C  0.23789732  0.78291825  0.51600713     0.05400
C1619       C  0.22178205  0.76187880  0.49209829     0.27800
C1620       C  0.22516917  0.75005297  0.48701474    -0.12700
C1621       C  0.21971990  0.74579366  0.47560117     0.05900
C1622       C  0.21104052  0.75346775  0.46906507    -0.08600
C1623       C  0.20767675  0.76531885  0.47426631     0.06700
C1624       C  0.21307761  0.76949373  0.48561199    -0.13000
Br1625     Br  0.24446763  0.78048955  0.48948904    -0.05100
Br1626     Br  0.21318955  0.76557167  0.54160406     0.00600
Br1627     Br  0.22344912  0.72912653  0.46949781     0.01000
Br1628     Br  0.20843881  0.78578314  0.49236030    -0.03400
Br1629     Br  0.24795339  0.79799107  0.51509623     0.01100
Br1630     Br  0.20845532  0.74956354  0.51532159    -0.02700
Br1631     Br  0.23713350  0.73967931  0.49585323    -0.03500
Br1632     Br  0.19609487  0.77638341  0.46555705     0.00400
C1633       C  0.24364921  0.77149523  0.55329277     0.01800
C1634       C  0.25434387  0.76781964  0.54622734     0.04700
C1635       C  0.25903398  0.75551166  0.54694791    -0.11400
C1636       C  0.25390644  0.74708027  0.55565148     0.24000
C1637       C  0.24405698  0.75095748  0.56362334    -0.12000
C1638       C  0.23870539  0.76303044  0.56228222     0.05400
C1639       C  0.25867178  0.73399897  0.55598227     0.27800
C1640       C  0.25293794  0.72481728  0.54842692    -0.12700
C1641       C  0.25813579  0.71269722  0.54770471     0.05900
C1642       C  0.26962111  0.70985515  0.55381403    -0.08600
C1643       C  0.27491295  0.71892996  0.56206310     0.06700
C1644       C  0.26935256  0.73093967  0.56316688    -0.13000
Br1645     Br  0.23777946  0.73946814  0.57613039    -0.05100
Br1646     Br  0.26351434  0.77987151  0.53646199     0.00600
Br1647     Br  0.24885467  0.69978559  0.53910855     0.01000
Br1648     Br  0.27653608  0.74351546  0.57415413    -0.03400
Br1649     Br  0.22430666  0.76731982  0.57240705     0.01100
Br1650     Br  0.27226046  0.74999297  0.53568823    -0.02700
Br1651     Br  0.23821132  0.72908357  0.53863897    -0.03500
Br1652     Br  0.28992586  0.71556878  0.57159932     0.00400
C1653       C  0.23803718  0.79449142  0.57242235     0.01800
C1654       C  0.22743399  0.79811901  0.57974173     0.04700
C1655       C  0.22872143  0.80093611  0.59265092    -0.11400
C1656       C  0.24055255  0.80012250  0.59851349     0.24000
C1657       C  0.25106154  0.79609721  0.59144884    -0.12000
C1658       C  0.24986325  0.79340735  0.57844134     0.05400
C1659       C  0.24183190  0.80342707  0.61214800     0.27800
C1660       C  0.24482286  0.81581288  0.61588847    -0.12700
C1661       C  0.24579756  0.81893542  0.62879711     0.05900
C1662       C  0.24362154  0.80974013  0.63806134    -0.08600
C1663       C  0.24032797  0.79742168  0.63428700     0.06700
C1664       C  0.23957961  0.79426276  0.62139899    -0.13000
Br1665     Br  0.26716927  0.79456562  0.59967818    -0.05100
Br1666     Br  0.21086935  0.79901805  0.57223497     0.00600
Br1667     Br  0.24967872  0.83591456  0.63385584     0.01000
Br1668     Br  0.23565893  0.77728564  0.61630570    -0.03400
Br1669     Br  0.26467750  0.78918395  0.56894170     0.01100
Br1670     Br  0.21425778  0.80612842  0.60239409    -0.02700
Br1671     Br  0.24756733  0.82847499  0.60326577    -0.03500
Br1672     Br  0.23720524  0.78464679  0.64671296     0.00400
C1673       C  0.32688929  0.72729587  0.35745965     0.01800
C1674       C  0.31708990  0.73514863  0.36202528     0.04700
C1675       C  0.31422723  0.73552479  0.37494376    -0.11400
C1676       C  0.32132594  0.72838571  0.38350692     0.24000
C1677       C  0.33114354  0.72057331  0.37904695    -0.12000
C1678       C  0.33380435  0.71988544  0.36602429     0.05400
C1679       C  0.31860347  0.72948709  0.39722213     0.27800
C1680       C  0.32345551  0.73965279  0.40415752    -0.12700
C1681       C  0.32063836  0.74098365  0.41705580     0.05900
C1682       C  0.31306711  0.73193321  0.42330160    -0.08600
C1683       C  0.30844735  0.72162045  0.41624307     0.06700
C1684       C  0.31088468  0.72063877  0.40321674    -0.13000
Br1685     Br  0.34110440  0.71108857  0.39086822    -0.05100
Br1686     Br  0.30720910  0.74532578  0.35068880     0.00600
Br1687     Br  0.32762566  0.75524099  0.42600693     0.01000
Br1688     Br  0.30391215  0.70696564  0.39349123    -0.03400
Br1689     Br  0.34730162  0.70929830  0.36000815     0.01100
Br1690     Br  0.30050499  0.74585436  0.38104233    -0.02700
Br1691     Br  0.33428071  0.75161712  0.39590615    -0.03500
Br1692     Br  0.30038040  0.70777210  0.42438171     0.00400
C1693       C  0.19065175  0.74504842  0.35628761     0.01800
C1694       C  0.18421059  0.75405419  0.36373913     0.04700
C1695       C  0.18605309  0.75445437  0.37691046    -0.11400
C1696       C  0.19446353  0.74599839  0.38275057     0.24000
C1697       C  0.20106686  0.73717253  0.37534026    -0.12000
C1698       C  0.19919779  0.73667087  0.36220312     0.05400
C1699       C  0.19613076  0.74607973  0.39672441     0.27800
C1700       C  0.20384004  0.75509363  0.40260211    -0.12700
C1701       C  0.20498764  0.75542134  0.41584897     0.05900
C1702       C  0.19931690  0.74605649  0.42335742    -0.08600
C1703       C  0.19173764  0.73683760  0.41728784     0.06700
C1704       C  0.18994981  0.73708361  0.40413181    -0.13000
Br1705     Br  0.21278181  0.72577867  0.38331707    -0.05100
Br1706     Br  0.17243591  0.76557474  0.35609125     0.00600
Br1707     Br  0.21269979  0.76985136  0.42345858     0.01000
Br1708     Br  0.17863630  0.72531348  0.39615702    -0.03400
Br1709     Br  0.20903286  0.72485952  0.35239218     0.01100
Br1710     Br  0.17684649  0.76643061  0.38707039    -0.02700
Br1711     Br  0.21259836  0.76721903  0.39240610    -0.03500
Br1712     Br  0.18357656  0.72366792  0.42675266     0.00400
C1713       C  0.22605024  0.74002153  0.31900235     0.01800
C1714       C  0.23311185  0.74651821  0.32821131     0.04700
C1715       C  0.24631278  0.74532535  0.32848004    -0.11400
C1716       C  0.25247280  0.73732389  0.31983369     0.24000
C1717       C  0.24542639  0.73077039  0.31070445    -0.12000
C1718       C  0.23229140  0.73234482  0.31009656     0.05400
C1719       C  0.26638074  0.73588364  0.32020310     0.27800
C1720       C  0.27394902  0.74288386  0.31193827    -0.12700
C1721       C  0.28707172  0.74109528  0.31180742     0.05900
C1722       C  0.29275783  0.73254576  0.32023344    -0.08600
C1723       C  0.28515813  0.72566226  0.32865429     0.06700
C1724       C  0.27200187  0.72728546  0.32856569    -0.13000
Br1725     Br  0.25382908  0.71954489  0.29909188    -0.05100
Br1726     Br  0.22472836  0.75663085  0.34082678     0.00600
Br1727     Br  0.29709111  0.74975855  0.29942898     0.01000
Br1728     Br  0.26158373  0.71771713  0.33987023    -0.03400
Br1729     Br  0.22296816  0.72461482  0.29654155     0.01100
Br1730     Br  0.25604578  0.75465492  0.34065072    -0.02700
Br1731     Br  0.26624600  0.75493366  0.30077353    -0.03500
Br1732     Br  0.29268777  0.71431436  0.34067319     0.00400
C1733       C  0.32957499  0.74404495  0.21632526     0.01800
C1734       C  0.32132714  0.74966700  0.22530709     0.04700
C1735       C  0.32146186  0.74562729  0.23790342    -0.11400
C1736       C  0.33030484  0.73665568  0.24191832     0.24000
C1737       C  0.33904141  0.73161812  0.23332667    -0.12000
C1738       C  0.33870517  0.73523719  0.22058069     0.05400
C1739       C  0.33118369  0.73364834  0.25551348     0.27800
C1740       C  0.33907710  0.74088546  0.26326219    -0.12700
C1741       C  0.33918428  0.73897841  0.27633662     0.05900
C1742       C  0.33085348  0.73020200  0.28187573    -0.08600
C1743       C  0.32308296  0.72277890  0.27399573     0.06700
C1744       C  0.32347291  0.72435002  0.26082640    -0.13000
Br1745     Br  0.35173756  0.72003497  0.23926201    -0.05100
Br1746     Br  0.31006130  0.76335380  0.22107516     0.00600
Br1747     Br  0.35129449  0.74817585  0.28634821     0.01000
Br1748     Br  0.31319188  0.71406599  0.24996080    -0.03400
Br1749     Br  0.35177318  0.72899180  0.20950638     0.01100
Br1750     Br  0.30962896  0.75254847  0.24994143    -0.02700
Br1751     Br  0.34946793  0.75377284  0.25587871    -0.03500
Br1752     Br  0.31114449  0.71113248  0.28104682     0.00400
C1753       C  0.18900563  0.74012635  0.28028425     0.01800
C1754       C  0.19756175  0.74740694  0.27317511     0.04700
C1755       C  0.19783259  0.74640132  0.25992471    -0.11400
C1756       C  0.18952346  0.73824031  0.25362838     0.24000
C1757       C  0.18103501  0.73094296  0.26063247    -0.12000
C1758       C  0.18087496  0.73170516  0.27388863     0.05400
C1759       C  0.18980514  0.73712315  0.23962860     0.27800
C1760       C  0.18298819  0.74564880  0.23213831    -0.12700
C1761       C  0.18266189  0.74418811  0.21892481     0.05900
C1762       C  0.18915247  0.73403894  0.21306002    -0.08600
C1763       C  0.19651378  0.72588462  0.22065151     0.06700
C1764       C  0.19669491  0.72736268  0.23384943    -0.13000
Br1765     Br  0.16949651  0.71996132  0.25190876    -0.05100
Br1766     Br  0.20959578  0.75819617  0.28146376     0.00600
Br1767     Br  0.17282083  0.75599503  0.20920999     0.01000
Br1768     Br  0.20639572  0.71598433  0.24416838    -0.03400
Br1769     Br  0.16917723  0.72128695  0.28302423     0.01100
Br1770     Br  0.20972492  0.75606414  0.25028090    -0.02700
Br1771     Br  0.17386489  0.75922140  0.24015764    -0.03500
Br1772     Br  0.20716738  0.71312313  0.21314511     0.00400
C1773       C  0.29178305  0.74011932  0.17846519     0.01800
C1774       C  0.28518832  0.73833507  0.18980917     0.04700
C1775       C  0.27233339  0.73533527  0.18958773    -0.11400
C1776       C  0.26601401  0.73417186  0.17798270     0.24000
C1777       C  0.27280351  0.73510694  0.16661956    -0.12000
C1778       C  0.28575876  0.73774818  0.16688607     0.05400
C1779       C  0.25216301  0.73255263  0.17776241     0.27800
C1780       C  0.24685139  0.72074226  0.17514648    -0.12700
C1781       C  0.23368848  0.71943382  0.17429681     0.05900
C1782       C  0.22568210  0.72986057  0.17692216    -0.08600
C1783       C  0.23120244  0.74146258  0.18058603     0.06700
C1784       C  0.24432625  0.74290978  0.18037175    -0.13000
Br1785     Br  0.26424200  0.73330397  0.15069646    -0.05100
Br1786     Br  0.29392736  0.73923456  0.20562646     0.00600
Br1787     Br  0.22709975  0.70333030  0.16906427     0.01000
Br1788     Br  0.25167558  0.75921682  0.18356884    -0.03400
Br1789     Br  0.29525867  0.73792927  0.15142888     0.01100
Br1790     Br  0.26327881  0.73303777  0.20516685    -0.02700
Br1791     Br  0.25775886  0.70634466  0.17283452    -0.03500
Br1792     Br  0.22121399  0.75530883  0.18707747     0.00400
C1793       C  0.19187189  0.72227738  0.13787364     0.01800
C1794       C  0.20285350  0.72773473  0.13274094     0.04700
C1795       C  0.20579670  0.72622263  0.11985669    -0.11400
C1796       C  0.19762310  0.71958095  0.11179786     0.24000
C1797       C  0.18664284  0.71412148  0.11688418    -0.12000
C1798       C  0.18397211  0.71517229  0.12990827     0.05400
C1799       C  0.20080053  0.71806199  0.09809534     0.27800
C1800       C  0.19933364  0.72818838  0.08965652    -0.12700
C1801       C  0.20267374  0.72680784  0.07682259     0.05900
C1802       C  0.20720687  0.71518077  0.07216881    -0.08600
C1803       C  0.20765874  0.70478487  0.08048880     0.06700
C1804       C  0.20520616  0.70641949  0.09345154    -0.13000
Br1805     Br  0.17513028  0.70536810  0.10591685    -0.05100
Br1806     Br  0.21438992  0.73676039  0.14345510     0.00600
Br1807     Br  0.19952186  0.74043819  0.06541880     0.01000
Br1808     Br  0.20810093  0.69270431  0.10495025    -0.03400
Br1809     Br  0.16947019  0.70689259  0.13679534     0.01100
Br1810     Br  0.22127428  0.73297257  0.11324140    -0.02700
Br1811     Br  0.19224004  0.74383551  0.09564583    -0.03500
Br1812     Br  0.21108248  0.68801532  0.07419658     0.00400
C1813       C  0.28806261  0.75763547  0.05546985     0.01800
C1814       C  0.28594932  0.74618251  0.04899068     0.04700
C1815       C  0.27406941  0.74053195  0.04913017    -0.11400
C1816       C  0.26442963  0.74566535  0.05659288     0.24000
C1817       C  0.26664865  0.75652118  0.06385085    -0.12000
C1818       C  0.27838616  0.76260911  0.06322488     0.05400
C1819       C  0.25197411  0.73951581  0.05673000     0.27800
C1820       C  0.24253502  0.74360455  0.04846743    -0.12700
C1821       C  0.23104924  0.73717345  0.04787624     0.05900
C1822       C  0.22936197  0.72578921  0.05451145    -0.08600
C1823       C  0.23879544  0.72198732  0.06315086     0.06700
C1824       C  0.24987997  0.72907466  0.06449509    -0.13000
Br1825     Br  0.25340918  0.76304631  0.07448279    -0.05100
Br1826     Br  0.29964011  0.73717627  0.04125627     0.00600
Br1827     Br  0.21756464  0.74451827  0.03839225     0.01000
Br1828     Br  0.26265051  0.72418758  0.07648157    -0.03400
Br1829     Br  0.28075990  0.77776166  0.07288982     0.01100
Br1830     Br  0.27087828  0.72580036  0.03890437    -0.02700
Br1831     Br  0.24572069  0.75758584  0.03737613    -0.03500
Br1832     Br  0.23753078  0.70661305  0.07241609     0.00400
C1833       C  0.30833765  0.76549059  0.07662417     0.01800
C1834       C  0.30632869  0.75415243  0.08323748     0.04700
C1835       C  0.30725034  0.75388596  0.09651134    -0.11400
C1836       C  0.31116358  0.76462564  0.10324163     0.24000
C1837       C  0.31296568  0.77598380  0.09678410    -0.12000
C1838       C  0.31123170  0.77652158  0.08363895     0.05400
C1839       C  0.31473825  0.76360544  0.11680712     0.27800
C1840       C  0.30650927  0.76765753  0.12640009    -0.12700
C1841       C  0.31003464  0.76657079  0.13918804     0.05900
C1842       C  0.32176665  0.76103994  0.14251626    -0.08600
C1843       C  0.32999199  0.75710929  0.13277546     0.06700
C1844       C  0.32657343  0.75858582  0.12004293    -0.13000
Br1845     Br  0.31852173  0.79066894  0.10594399    -0.05100
Br1846     Br  0.30391015  0.73856661  0.07439923     0.00600
Br1847     Br  0.29823076  0.77204606  0.15195460     0.01000
Br1848     Br  0.33818413  0.75379001  0.10685825    -0.03400
Br1849     Br  0.31286039  0.79259504  0.07535796     0.01100
Br1850     Br  0.30371172  0.73863187  0.10560445    -0.02700
Br1851     Br  0.29024653  0.77441433  0.12190631    -0.03500
Br1852     Br  0.34616843  0.74989519  0.13661216     0.00400
C1853       C  0.25153331  0.70145918  0.96771522     0.01800
C1854       C  0.23966127  0.69768963  0.97239167     0.04700
C1855       C  0.23551052  0.70171934  0.98430405    -0.11400
C1856       C  0.24275551  0.71021569  0.99147804     0.24000
C1857       C  0.25418158  0.71473838  0.98647547    -0.12000
C1858       C  0.25878406  0.71001967  0.97484684     0.05400
C1859       C  0.23832470  0.71369038  0.00442966     0.27800
C1860       C  0.22727373  0.72089500  0.00581620    -0.12700
C1861       C  0.22024419  0.72027980  0.01704745     0.05900
C1862       C  0.22522986  0.71417623  0.02780636    -0.08600
C1863       C  0.23699499  0.70799311  0.02674006     0.06700
C1864       C  0.24334516  0.70750024  0.01504049    -0.13000
Br1865     Br  0.26352214  0.72727733  0.99565290    -0.05100
Br1866     Br  0.22873399  0.68710334  0.96236313     0.00600
Br1867     Br  0.20304603  0.72623482  0.01679945     0.01000
Br1868     Br  0.25830682  0.69730452  0.01320244    -0.03400
Br1869     Br  0.27538334  0.71449433  0.96930522     0.01100
Br1870     Br  0.22001007  0.69503881  0.99102025    -0.02700
Br1871     Br  0.22128264  0.73075392  0.99181046    -0.03500
Br1872     Br  0.24350357  0.69837517  0.04059988     0.00400
C1873       C  0.25796796  0.68915942  0.92231764     0.01800
C1874       C  0.26693176  0.68178990  0.91558053     0.04700
C1875       C  0.26560011  0.67978323  0.90251924    -0.11400
C1876       C  0.25551791  0.68524631  0.89589636     0.24000
C1877       C  0.24656211  0.69250839  0.90246988    -0.12000
C1878       C  0.24746759  0.69395945  0.91566313     0.05400
C1879       C  0.25442010  0.68306737  0.88204334     0.27800
C1880       C  0.26228486  0.68970388  0.87377752    -0.12700
C1881       C  0.26288842  0.68635569  0.86094333     0.05900
C1882       C  0.25513715  0.67666388  0.85609409    -0.08600
C1883       C  0.24669092  0.67052536  0.86427821     0.06700
C1884       C  0.24649766  0.67357337  0.87723974    -0.13000
Br1885     Br  0.23282762  0.70014999  0.89337117    -0.05100
Br1886     Br  0.28079541  0.67358084  0.92406332     0.00600
Br1887     Br  0.27426810  0.69540579  0.85011364     0.01000
Br1888     Br  0.23567249  0.66447652  0.88854006    -0.03400
Br1889     Br  0.23308756  0.70032624  0.92460577     0.01100
Br1890     Br  0.27734676  0.66903312  0.89361735    -0.02700
Br1891     Br  0.27227960  0.70342762  0.88020654    -0.03500
Br1892     Br  0.23587285  0.65741687  0.85795008     0.00400
C1893       C  0.28389809  0.78952669  0.96795584     0.01800
C1894       C  0.27436265  0.78195772  0.97326546     0.04700
C1895       C  0.27607812  0.77638039  0.98525116    -0.11400
C1896       C  0.28687438  0.77910635  0.99247795     0.24000
C1897       C  0.29606793  0.78718801  0.98750648    -0.12000
C1898       C  0.29480091  0.79206887  0.97526942     0.05400
C1899       C  0.28886949  0.77377585  0.00537307     0.27800
C1900       C  0.28362570  0.77981595  0.01599092    -0.12700
C1901       C  0.28826923  0.77724577  0.02819588     0.05900
C1902       C  0.29821699  0.76853817  0.02997119    -0.08600
C1903       C  0.30326420  0.76232251  0.01921854     0.06700
C1904       C  0.29816902  0.76449235  0.00714317    -0.13000
Br1905     Br  0.31041989  0.79183841  0.99770479    -0.05100
Br1906     Br  0.25839674  0.78030305  0.96492331     0.00600
Br1907     Br  0.28254607  0.78755936  0.04196821     0.01000
Br1908     Br  0.30459399  0.75548615  0.99266505    -0.03400
Br1909     Br  0.30853841  0.80185157  0.96852259     0.01100
Br1910     Br  0.26361484  0.76510466  0.99189660    -0.02700
Br1911     Br  0.27082533  0.79250927  0.01363462    -0.03500
Br1912     Br  0.31826677  0.75206911  0.02041302     0.00400
C1913       C  0.27856369  0.77745011  0.94092881     0.01800
C1914       C  0.28645363  0.76792337  0.94588432     0.04700
C1915       C  0.28258954  0.75527151  0.94562298    -0.11400
C1916       C  0.27205434  0.75166009  0.93837019     0.24000
C1917       C  0.26540380  0.76093686  0.93167480    -0.12000
C1918       C  0.26777903  0.77374000  0.93401781     0.05400
C1919       C  0.26750425  0.73836536  0.93844707     0.27800
C1920       C  0.27509290  0.72860771  0.93363603    -0.12700
C1921       C  0.27195617  0.71599629  0.93600630     0.05900
C1922       C  0.26009573  0.71281513  0.94117442    -0.08600
C1923       C  0.25182209  0.72273022  0.94463678     0.06700
C1924       C  0.25584293  0.73534180  0.94402336    -0.13000
Br1925     Br  0.25285400  0.75609549  0.91945131    -0.05100
Br1926     Br  0.30292204  0.77179380  0.95234294     0.00600
Br1927     Br  0.28509509  0.70366149  0.93445746     0.01000
Br1928     Br  0.24560276  0.74839435  0.95159299    -0.03400
Br1929     Br  0.25477641  0.78554164  0.92973744     0.01100
Br1930     Br  0.29139554  0.74315142  0.95588357    -0.02700
Br1931     Br  0.28997920  0.73252274  0.92399703    -0.03500
Br1932     Br  0.23493886  0.71948283  0.95025992     0.00400
C1933       C  0.27737441  0.81021206  0.85427166     0.01800
C1934       C  0.27001238  0.80069352  0.85991602     0.04700
C1935       C  0.27120865  0.79801816  0.87288925    -0.11400
C1936       C  0.27960090  0.80492112  0.88048107     0.24000
C1937       C  0.28701531  0.81436146  0.87488990    -0.12000
C1938       C  0.28597816  0.81693611  0.86185700     0.05400
C1939       C  0.27980571  0.80300110  0.89448341     0.27800
C1940       C  0.27095864  0.80933493  0.90208281    -0.12700
C1941       C  0.27130222  0.80814519  0.91530341     0.05900
C1942       C  0.28034733  0.80023471  0.92121244    -0.08600
C1943       C  0.28924254  0.79391080  0.91352619     0.06700
C1944       C  0.28889098  0.79520751  0.90024828    -0.13000
Br1945     Br  0.29840148  0.82396316  0.88524690    -0.05100
Br1946     Br  0.25847980  0.79090308  0.84988106     0.00600
Br1947     Br  0.25926437  0.81770609  0.92517446     0.01000
Br1948     Br  0.30112028  0.78664527  0.88987042    -0.03400
Br1949     Br  0.29587083  0.83017381  0.85456932     0.01100
Br1950     Br  0.26131081  0.78485966  0.88040215    -0.02700
Br1951     Br  0.25846074  0.81997108  0.89425373    -0.03500
Br1952     Br  0.30286072  0.78467972  0.92108312     0.00400
C1953       C  0.15047544  0.74597513  0.31566673     0.01800
C1954       C  0.14219138  0.74418548  0.32584638     0.04700
C1955       C  0.12904690  0.74458690  0.32390909    -0.11400
C1956       C  0.12408601  0.74613337  0.31163944     0.24000
C1957       C  0.13241846  0.74802949  0.30149281    -0.12000
C1958       C  0.14551095  0.74839275  0.30358610     0.05400
C1959       C  0.11017922  0.74553001  0.30938823     0.27800
C1960       C  0.10381915  0.73399559  0.31047999    -0.12700
C1961       C  0.09058921  0.73355696  0.30967378     0.05900
C1962       C  0.08361100  0.74431690  0.30593935    -0.08600
C1963       C  0.09004376  0.75588067  0.30483416     0.06700
C1964       C  0.10319087  0.75651519  0.30675744    -0.13000
Br1965     Br  0.12591654  0.74967678  0.28460608    -0.05100
Br1966     Br  0.14891168  0.74149226  0.34248492     0.00600
Br1967     Br  0.08226131  0.71858647  0.31555702     0.01000
Br1968     Br  0.11157169  0.77258630  0.30660620    -0.03400
Br1969     Br  0.15663703  0.75230349  0.28984171     0.01100
Br1970     Br  0.11782160  0.74312539  0.33809829    -0.02700
Br1971     Br  0.11328901  0.71872677  0.31329315    -0.03500
Br1972     Br  0.08071040  0.77126844  0.30279854     0.00400
C1973       C  0.06490361  0.73866244  0.21564902     0.01800
C1974       C  0.07187388  0.74847323  0.22141263     0.04700
C1975       C  0.07356345  0.74885933  0.23454742    -0.11400
C1976       C  0.06624576  0.74116644  0.24234582     0.24000
C1977       C  0.05875452  0.73173132  0.23677698    -0.12000
C1978       C  0.05902198  0.72977802  0.22362907     0.05400
C1979       C  0.06615288  0.74324439  0.25628140     0.27800
C1980       C  0.07071454  0.73386223  0.26438567    -0.12700
C1981       C  0.06865859  0.73486208  0.27742330     0.05900
C1982       C  0.06422531  0.74622968  0.28285475    -0.08600
C1983       C  0.06094817  0.75622205  0.27470158     0.06700
C1984       C  0.06107450  0.75439703  0.26152387    -0.13000
Br1985     Br  0.04747766  0.72190969  0.24701015    -0.05100
Br1986     Br  0.07705279  0.76294602  0.21213229     0.00600
Br1987     Br  0.06925582  0.71966230  0.28702635     0.01000
Br1988     Br  0.05356264  0.76692326  0.25073230    -0.03400
Br1989     Br  0.05175243  0.71455314  0.21709042     0.01100
Br1990     Br  0.08573355  0.76016638  0.24190279    -0.02700
Br1991     Br  0.07954784  0.71942815  0.25761363    -0.03500
Br1992     Br  0.05626367  0.77247484  0.28124347     0.00400
C1993       C  0.15003199  0.72697956  0.17916590     0.01800
C1994       C  0.14109572  0.72782786  0.16941024     0.04700
C1995       C  0.12815813  0.72884835  0.17227940    -0.11400
C1996       C  0.12413007  0.72970294  0.18494078     0.24000
C1997       C  0.13304369  0.72865500  0.19468340    -0.12000
C1998       C  0.14586837  0.72692038  0.19180424     0.05400
C1999       C  0.11069216  0.73254713  0.18798053     0.27800
C2000       C  0.10599041  0.74478495  0.18618766    -0.12700
C2001       C  0.09308855  0.74736849  0.18780977     0.05900
C2002       C  0.08487213  0.73804402  0.19264841    -0.08600
C2003       C  0.08977396  0.72583991  0.19479507     0.06700
C2004       C  0.10255044  0.72307369  0.19227973    -0.13000
Br2005     Br  0.12771989  0.73023405  0.21200601    -0.05100
Br2006     Br  0.14660049  0.72771738  0.15215021     0.00600
Br2007     Br  0.08680961  0.76344428  0.18203246     0.01000
Br2008     Br  0.10882123  0.70610049  0.19396025    -0.03400
Br2009     Br  0.15768564  0.72463247  0.20532512     0.01100
Br2010     Br  0.11590913  0.72926811  0.15888566    -0.02700
Br2011     Br  0.11733216  0.75802014  0.18122495    -0.03500
Br2012     Br  0.07879194  0.71231311  0.19936075     0.00400
C2013       C  0.03811198  0.75294590  0.29574861     0.01800
C2014       C  0.03155722  0.74704435  0.28576828     0.04700
C2015       C  0.02065150  0.75271819  0.28062815     0.15000
C2016       C  0.01564220  0.76375416  0.28610066     0.24000
C2017       C  0.02177314  0.76926917  0.29647901    -0.12000
C2018       C  0.03310696  0.76417305  0.30101943     0.05400
C2019       C  0.00367393  0.76954936  0.28155271     0.27800
C2020       C  0.00407217  0.78063340  0.27435976    -0.12700
C2021       C  0.99318763  0.78814395  0.27294405     0.05900
C2022       C  0.98154837  0.78423389  0.27811590    -0.08600
C2023       C  0.98128664  0.77315794  0.28540730     0.06700
C2024       C  0.99216446  0.76565866  0.28675578    -0.13000
Br2025     Br  0.01436145  0.78374346  0.30475069    -0.05100
Br2026     Br  0.03661432  0.73064740  0.27996389     0.00600
Br2027     Br  0.99472958  0.80433578  0.26491728     0.01000
Br2028     Br  0.99158412  0.75044035  0.29656788    -0.03400
Br2029     Br  0.04196150  0.77313916  0.31417411     0.01100
Br2030     Br  0.01241167  0.74534438  0.26623521    -0.02700
Br2031     Br  0.01983023  0.78576259  0.26700778    -0.03500
Br2032     Br  0.96699852  0.76959284  0.29583937     0.00400
C2033       C  0.97748918  0.71362827  0.21710229     0.01800
C2034       C  0.97862744  0.72541656  0.21110513     0.04700
C2035       C  0.99055781  0.73100321  0.20954039    -0.11400
C2036       C  0.00143441  0.72509979  0.21433054     0.24000
C2037       C  0.00024197  0.71376548  0.22101401    -0.12000
C2038       C  0.98852336  0.70766166  0.22167240     0.05400
C2039       C  0.01417968  0.72927455  0.21018017     0.27800
C2040       C  0.02021769  0.72262434  0.20037356    -0.12700
C2041       C  0.03227714  0.72614419  0.19634091     0.05900
C2042       C  0.03840443  0.73662810  0.20183820    -0.08600
C2043       C  0.03218984  0.74355644  0.21137194     0.06700
C2044       C  0.02023028  0.73971388  0.21572709    -0.13000
Br2045     Br  0.01499901  0.70615635  0.22841760    -0.05100
Br2046     Br  0.96428453  0.73300819  0.20310218     0.00600
Br2047     Br  0.04065945  0.71591989  0.18372136     0.01000
Br2048     Br  0.01205394  0.74873582  0.22922411    -0.03400
Br2049     Br  0.98815828  0.69039209  0.22725146     0.01100
Br2050     Br  0.99221365  0.74614592  0.19973324    -0.02700
Br2051     Br  0.01186486  0.70862667  0.19229290    -0.03500
Br2052     Br  0.03962471  0.75871710  0.21787946     0.00400
C2053       C  0.95251323  0.71903358  0.23173835     0.01800
C2054       C  0.94437431  0.72923851  0.22893503     0.04700
C2055       C  0.94456122  0.74023010  0.23635107    -0.11400
C2056       C  0.95303000  0.74128029  0.24642797     0.24000
C2057       C  0.96061482  0.73100827  0.24977897    -0.12000
C2058       C  0.96011415  0.71982614  0.24268156     0.05400
C2059       C  0.95451027  0.75352468  0.25290035     0.27800
C2060       C  0.96301487  0.76234166  0.24807877    -0.12700
C2061       C  0.96409730  0.77422625  0.25376799     0.05900
C2062       C  0.95672134  0.77739268  0.26443804    -0.08600
C2063       C  0.94798435  0.76851501  0.26905103     0.06700
C2064       C  0.94703332  0.75657388  0.26338177    -0.13000
Br2065     Br  0.97210525  0.73258643  0.26379450    -0.05100
Br2066     Br  0.93362951  0.72909643  0.21447026     0.00600
Br2067     Br  0.97530738  0.78622391  0.24631095     0.01000
Br2068     Br  0.93567007  0.74415722  0.27004200    -0.03400
Br2069     Br  0.96965804  0.70562749  0.24840900     0.01100
Br2070     Br  0.93373899  0.75432492  0.23236347    -0.02700
Br2071     Br  0.97321327  0.75799501  0.23360818    -0.03500
Br2072     Br  0.93747888  0.77218770  0.28332807     0.00400
C2073       C  0.56560371  0.71201185  0.25520138     0.01800
C2074       C  0.55754482  0.71510125  0.24502770     0.04700
C2075       C  0.55757236  0.72731562  0.23994551    -0.11400
C2076       C  0.56609733  0.73636454  0.24447165     0.24000
C2077       C  0.57449208  0.73320327  0.25421751    -0.12000
C2078       C  0.57419919  0.72112914  0.25963189     0.05400
C2079       C  0.56650312  0.74911072  0.23873669     0.27800
C2080       C  0.57379505  0.75116457  0.22789733    -0.12700
C2081       C  0.57402768  0.76312065  0.22222612     0.05900
C2082       C  0.56700091  0.77323167  0.22743163    -0.08600
C2083       C  0.56013821  0.77119290  0.23866863     0.06700
C2084       C  0.55972529  0.75915989  0.24414153    -0.13000
Br2085     Br  0.58616649  0.74565341  0.26034190    -0.05100
Br2086     Br  0.54668419  0.70255810  0.23768458     0.00600
Br2087     Br  0.58291552  0.76496352  0.20658212     0.01000
Br2088     Br  0.54965237  0.75632630  0.25895462    -0.03400
Br2089     Br  0.58444733  0.71776847  0.27412968     0.01100
Br2090     Br  0.54582254  0.73178449  0.22684168    -0.02700
Br2091     Br  0.58311233  0.73731329  0.22059744    -0.03500
Br2092     Br  0.55176275  0.78494435  0.24709618     0.00400
C2093       C  0.47792131  0.71125554  0.28319883     0.01800
C2094       C  0.48082134  0.70654449  0.27105298     0.04700
C2095       C  0.49341359  0.70620098  0.26682337    -0.11400
C2096       C  0.50323034  0.70989703  0.27490637     0.24000
C2097       C  0.50037650  0.71500578  0.28681851    -0.12000
C2098       C  0.48784529  0.71568152  0.29096969     0.05400
C2099       C  0.51643787  0.70604664  0.27223452     0.27800
C2100       C  0.52046066  0.69413578  0.27632928    -0.12700
C2101       C  0.53330034  0.69096804  0.27609334     0.05900
C2102       C  0.54217284  0.69909696  0.27034342    -0.08600
C2103       C  0.53840564  0.71180217  0.26899996     0.06700
C2104       C  0.52550174  0.71493921  0.26863303    -0.13000
Br2105     Br  0.51384709  0.72003521  0.29797333    -0.05100
Br2106     Br  0.46811269  0.69859931  0.26093310     0.00600
Br2107     Br  0.53879816  0.67755990  0.28709653     0.01000
Br2108     Br  0.52035507  0.73180063  0.26441343    -0.03400
Br2109     Br  0.48459851  0.72205410  0.30778973     0.01100
Br2110     Br  0.49747413  0.69976785  0.25030442    -0.02700
Br2111     Br  0.50838081  0.68231644  0.28291802    -0.03500
Br2112     Br  0.54906031  0.72478902  0.27555021     0.00400
C2113       C  0.43159018  0.71476094  0.29487182     0.01800
C2114       C  0.42320095  0.70458123  0.29682400     0.04700
C2115       C  0.41078514  0.70677648  0.30089670    -0.11400
C2116       C  0.40620184  0.71914230  0.30223234     0.24000
C2117       C  0.41415807  0.72931149  0.29942915    -0.12000
C2118       C  0.42691531  0.72717072  0.29629032     0.05400
C2119       C  0.39291533  0.72126978  0.30632979     0.27800
C2120       C  0.38305100  0.71855900  0.29792790    -0.12700
C2121       C  0.37050926  0.71881736  0.30212117     0.05900
C2122       C  0.36755022  0.72308388  0.31440658    -0.08600
C2123       C  0.37738972  0.72629695  0.32269998     0.06700
C2124       C  0.39005399  0.72502121  0.31880027    -0.13000
Br2125     Br  0.40752838  0.74621626  0.30012794    -0.05100
Br2126     Br  0.42859134  0.68735966  0.29414337     0.00600
Br2127     Br  0.35754789  0.71291424  0.29092485     0.01000
Br2128     Br  0.40348657  0.72807098  0.33060510    -0.03400
Br2129     Br  0.43797750  0.74134770  0.29555797     0.01100
Br2130     Br  0.40011536  0.69275571  0.30519155    -0.02700
Br2131     Br  0.38678977  0.71461362  0.28053986    -0.03500
Br2132     Br  0.37348126  0.73175922  0.33958432     0.00400
C2133       C  0.47551880  0.77448843  0.20885993     0.01800
C2134       C  0.47986263  0.77602272  0.22138026     0.04700
C2135       C  0.49291568  0.77562023  0.22407250    -0.11400
C2136       C  0.50182641  0.77597069  0.21420392     0.24000
C2137       C  0.49751605  0.77484071  0.20168867    -0.12000
C2138       C  0.48463873  0.77306273  0.19916074     0.05400
C2139       C  0.51549343  0.77866789  0.21673013     0.27800
C2140       C  0.51918657  0.79064467  0.22111177    -0.12700
C2141       C  0.53205191  0.79371476  0.22217537     0.05900
C2142       C  0.54150917  0.78536746  0.21761388    -0.08600
C2143       C  0.53770117  0.77351192  0.21289090     0.06700
C2144       C  0.52492079  0.76987768  0.21336927    -0.13000
Br2145     Br  0.50903599  0.77691711  0.18776689    -0.05100
Br2146     Br  0.46852346  0.78088481  0.23462423     0.00600
Br2147     Br  0.53648697  0.80967283  0.22977110     0.01000
Br2148     Br  0.52019924  0.75294535  0.20884294    -0.03400
Br2149     Br  0.47969359  0.76877113  0.18212298     0.01100
Br2150     Br  0.49865309  0.77501448  0.24129598    -0.02700
Br2151     Br  0.50662561  0.80336765  0.22468847    -0.03500
Br2152     Br  0.54921974  0.76306523  0.20359082     0.00400
C2153       C  0.45030851  0.76141984  0.21900979     0.01800
C2154       C  0.45741341  0.75011904  0.21869909     0.04700
C2155       C  0.45737704  0.74190884  0.22909133    -0.11400
C2156       C  0.44996026  0.74468337  0.23972813     0.24000
C2157       C  0.44231509  0.75550776  0.23980816    -0.12000
C2158       C  0.44263571  0.76395713  0.22963440     0.05400
C2159       C  0.45097639  0.73691453  0.25131895     0.27800
C2160       C  0.44335156  0.72627787  0.25302431    -0.12700
C2161       C  0.44414431  0.71926783  0.26426435     0.05900
C2162       C  0.45230817  0.72310464  0.27410105    -0.08600
C2163       C  0.45958633  0.73409363  0.27241033     0.06700
C2164       C  0.45921890  0.74066647  0.26096136    -0.13000
Br2165     Br  0.43176353  0.75893260  0.25423791    -0.05100
Br2166     Br  0.46659329  0.74534227  0.20377534     0.00600
Br2167     Br  0.43476096  0.70390738  0.26551153     0.01000
Br2168     Br  0.47015589  0.75486504  0.25837235    -0.03400
Br2169     Br  0.43374641  0.77968145  0.23120852     0.01100
Br2170     Br  0.46767740  0.72692943  0.22894682    -0.02700
Br2171     Br  0.43199919  0.72126441  0.23976654    -0.03500
Br2172     Br  0.46933272  0.74104041  0.28600662     0.00400
C2173       C  0.36306206  0.76428733  0.18451466     0.01800
C2174       C  0.37288260  0.76325365  0.17563815     0.04700
C2175       C  0.38548819  0.76510256  0.17933428    -0.11400
C2176       C  0.38844277  0.76766943  0.19203083     0.24000
C2177       C  0.37865278  0.76897747  0.20088215    -0.12000
C2178       C  0.36601590  0.76749140  0.19712267     0.05400
C2179       C  0.40182704  0.76928948  0.19598396     0.27800
C2180       C  0.40966807  0.75876131  0.19789655    -0.12700
C2181       C  0.42270933  0.76032740  0.20003508     0.05900
C2182       C  0.42782592  0.77252667  0.20163301    -0.08600
C2183       C  0.41945753  0.78301080  0.20100668     0.06700
C2184       C  0.40680397  0.78140727  0.19745626    -0.13000
Br2185     Br  0.38266622  0.77245012  0.21827604    -0.05100
Br2186     Br  0.36908544  0.75969742  0.15830847     0.00600
Br2187     Br  0.43329063  0.74569938  0.19905793     0.01000
Br2188     Br  0.39641040  0.79586604  0.19373028    -0.03400
Br2189     Br  0.35287915  0.76933590  0.20952621     0.01100
Br2190     Br  0.39878505  0.76420837  0.16699415    -0.02700
Br2191     Br  0.40246058  0.74215200  0.19704062    -0.03500
Br2192     Br  0.42507261  0.79984903  0.20503185     0.00400
C2193       C  0.87262483  0.81207672  0.25349370     0.01800
C2194       C  0.87800420  0.80026538  0.25052553     0.04700
C2195       C  0.89075913  0.79776076  0.25332066    -0.11400
C2196       C  0.89855018  0.80737653  0.25809180     0.24000
C2197       C  0.89343127  0.81954633  0.25987948    -0.12000
C2198       C  0.88045797  0.82178134  0.25794377     0.05400
C2199       C  0.91194456  0.80463474  0.26166023     0.27800
C2200       C  0.91533250  0.80373339  0.27446056    -0.12700
C2201       C  0.92802020  0.80194471  0.27797355     0.05900
C2202       C  0.93747563  0.80019179  0.26868767    -0.08600
C2203       C  0.93403492  0.80118244  0.25586543     0.06700
C2204       C  0.92136830  0.80336575  0.25238192    -0.13000
Br2205     Br  0.90423693  0.83314303  0.26503401    -0.05100
Br2206     Br  0.86795877  0.78751031  0.24249250     0.00600
Br2207     Br  0.93231584  0.80229403  0.29567684     0.01000
Br2208     Br  0.91695220  0.80519129  0.23485389    -0.03400
Br2209     Br  0.87338176  0.83820364  0.26113399     0.01100
Br2210     Br  0.89741434  0.78097609  0.25120560    -0.02700
Br2211     Br  0.90246328  0.80496529  0.28724465    -0.03500
Br2212     Br  0.94673804  0.80119554  0.24302155     0.00400
C2213       C  0.65264642  0.67690233  0.25043390     0.01800
C2214       C  0.64872221  0.68930763  0.25327712     0.04700
C2215       C  0.63590541  0.69263926  0.25272461    -0.11400
C2216       C  0.62677111  0.68343828  0.25021051     0.24000
C2217       C  0.63062616  0.67100202  0.24743558    -0.12000
C2218       C  0.64354982  0.66780649  0.24729707     0.05400
C2219       C  0.61319204  0.68653871  0.25211312     0.27800
C2220       C  0.60816343  0.68620712  0.26437370    -0.12700
C2221       C  0.59524580  0.68831434  0.26634779     0.05900
C2222       C  0.58725807  0.69138520  0.25614494    -0.08600
C2223       C  0.59239835  0.69224954  0.24393590     0.06700
C2224       C  0.60532190  0.68976565  0.24191164    -0.13000
Br2225     Br  0.61814037  0.65829417  0.24425382    -0.05100
Br2226     Br  0.66077737  0.70180137  0.25834937     0.00600
Br2227     Br  0.58834695  0.68601500  0.28302917     0.01000
Br2228     Br  0.61220601  0.69029272  0.22514339    -0.03400
Br2229     Br  0.64879242  0.65082669  0.24355984     0.01100
Br2230     Br  0.63071718  0.70982831  0.25559944    -0.02700
Br2231     Br  0.61898063  0.68236095  0.27847114    -0.03500
Br2232     Br  0.58156446  0.69592883  0.22988722     0.00400
C2233       C  0.93269992  0.69797449  0.22246415     0.01800
C2234       C  0.92300673  0.69946925  0.21339126     0.04700
C2235       C  0.91044001  0.69655755  0.21640848    -0.11400
C2236       C  0.90758200  0.69040390  0.22776292     0.24000
C2237       C  0.91732616  0.68801126  0.23645935    -0.12000
C2238       C  0.92974568  0.69198763  0.23394033     0.05400
C2239       C  0.89448946  0.68584643  0.23020606     0.27800
C2240       C  0.88671016  0.69216521  0.23892493    -0.12700
C2241       C  0.87441200  0.68783196  0.24131079     0.05900
C2242       C  0.86948865  0.67743112  0.23455129    -0.08600
C2243       C  0.87726780  0.67120156  0.22571839     0.06700
C2244       C  0.88977024  0.67522262  0.22374825    -0.13000
Br2245     Br  0.91374854  0.67851898  0.25148036    -0.05100
Br2246     Br  0.92690438  0.70407462  0.19622397     0.00600
Br2247     Br  0.86426131  0.69666465  0.25356881     0.01000
Br2248     Br  0.90053744  0.66610395  0.21224022    -0.03400
Br2249     Br  0.94293659  0.68746137  0.24545024     0.01100
Br2250     Br  0.89707464  0.70083949  0.20487211    -0.02700
Br2251     Br  0.89282526  0.70710202  0.24727790    -0.03500
Br2252     Br  0.87098182  0.65688622  0.21657847     0.00400
C2253       C  0.83389105  0.77714317  0.24927007     0.01800
C2254       C  0.82603934  0.77112753  0.24034192     0.04700
C2255       C  0.82600076  0.75790313  0.23928870    -0.11400
C2256       C  0.83388000  0.75055547  0.24701312     0.24000
C2257       C  0.84166308  0.75648808  0.25595781    -0.12000
C2258       C  0.84147899  0.76968118  0.25731093     0.05400
C2259       C  0.83369371  0.73655510  0.24603428     0.27800
C2260       C  0.82682630  0.72947422  0.25481003    -0.12700
C2261       C  0.82686361  0.71623288  0.25414791     0.05900
C2262       C  0.83312548  0.70989519  0.24419307    -0.08600
C2263       C  0.84016563  0.71708603  0.23547917     0.06700
C2264       C  0.84057797  0.73031649  0.23654078    -0.13000
Br2265     Br  0.85276816  0.74642157  0.26622758    -0.05100
Br2266     Br  0.81457289  0.78083970  0.23010846     0.00600
Br2267     Br  0.81827873  0.70706180  0.26706366     0.01000
Br2268     Br  0.85081277  0.74000945  0.22517514    -0.03400
Br2269     Br  0.85185675  0.77729414  0.27017595     0.01100
Br2270     Br  0.81499082  0.74974166  0.22737156    -0.02700
Br2271     Br  0.81718517  0.73805115  0.26768565    -0.03500
Br2272     Br  0.85008006  0.70892830  0.22254577     0.00400
C2273       C  0.79485135  0.66898885  0.24598262     0.01800
C2274       C  0.78770309  0.66164370  0.23743271     0.04700
C2275       C  0.77454529  0.66082444  0.23877319    -0.11400
C2276       C  0.76841289  0.66743990  0.24850199     0.24000
C2277       C  0.77552032  0.67390584  0.25758706    -0.12000
C2278       C  0.78870655  0.67438222  0.25656512     0.05400
C2279       C  0.75446877  0.66807633  0.24893400     0.27800
C2280       C  0.74817455  0.67815118  0.24305625    -0.12700
C2281       C  0.73498094  0.67901349  0.24359023     0.05900
C2282       C  0.72802409  0.66983517  0.25008403    -0.08600
C2283       C  0.73434731  0.65989632  0.25620676     0.06700
C2284       C  0.74754868  0.65897003  0.25554121    -0.13000
Br2285     Br  0.76701478  0.68230066  0.27135249    -0.05100
Br2286     Br  0.79585910  0.65180306  0.22442689     0.00600
Br2287     Br  0.72648810  0.69313907  0.23596301     0.01000
Br2288     Br  0.75622429  0.64525615  0.26364910    -0.03400
Br2289     Br  0.79797224  0.68230540  0.26995055     0.01100
Br2290     Br  0.76481106  0.65056438  0.22738136    -0.02700
Br2291     Br  0.75772936  0.69087343  0.23442807    -0.03500
Br2292     Br  0.72494651  0.64738090  0.26528603     0.00400
C2293       C  0.65457046  0.80838412  0.22738504     0.01800
C2294       C  0.64477206  0.81706927  0.22974387     0.04700
C2295       C  0.63205386  0.81348860  0.22816752    -0.11400
C2296       C  0.62893759  0.80102196  0.22475919     0.24000
C2297       C  0.63871183  0.79228780  0.22256866    -0.12000
C2298       C  0.65142624  0.79602552  0.22348627     0.05400
C2299       C  0.61542217  0.79729452  0.22295940     0.27800
C2300       C  0.60762069  0.79481898  0.23339478    -0.12700
C2301       C  0.59453251  0.79289729  0.23177213     0.05900
C2302       C  0.58915194  0.79264709  0.21957129    -0.08600
C2303       C  0.59727518  0.79435121  0.20905897     0.06700
C2304       C  0.61020762  0.79682534  0.21078030    -0.13000
Br2305     Br  0.63459678  0.77507984  0.21852844    -0.05100
Br2306     Br  0.64880902  0.83406963  0.23454986     0.00600
Br2307     Br  0.58403478  0.79233024  0.24645939     0.01000
Br2308     Br  0.62076951  0.80025744  0.19640969    -0.03400
Br2309     Br  0.66446602  0.78400023  0.21945072     0.01100
Br2310     Br  0.61882209  0.82574752  0.23039466    -0.02700
Br2311     Br  0.61494307  0.79451140  0.25001243    -0.03500
Br2312     Br  0.59077195  0.79375972  0.19203468     0.00400
C2313       C  0.69230113  0.77675677  0.24084630     0.01800
C2314       C  0.68226348  0.77094145  0.24733014     0.04700
C2315       C  0.68218829  0.75778004  0.24896112    -0.11400
C2316       C  0.69222081  0.75035574  0.24438285     0.24000
C2317       C  0.70248371  0.75619473  0.23842990    -0.12000
C2318       C  0.70255387  0.76932580  0.23669954     0.05400
C2319       C  0.69187493  0.73637767  0.24553768     0.27800
C2320       C  0.69828546  0.73030794  0.25540503    -0.12700
C2321       C  0.69851106  0.71705782  0.25608951     0.05900
C2322       C  0.69164608  0.70970578  0.24729262    -0.08600
C2323       C  0.68493553  0.71594040  0.23756292     0.06700
C2324       C  0.68535019  0.72915492  0.23654818    -0.13000
Br2325     Br  0.71641466  0.74609338  0.23252176    -0.05100
Br2326     Br  0.66833365  0.78081306  0.25369055     0.00600
Br2327     Br  0.70905468  0.70921121  0.26864768     0.01000
Br2328     Br  0.67701880  0.73751805  0.22273739    -0.03400
Br2329     Br  0.71711498  0.77716570  0.22930915     0.01100
Br2330     Br  0.66822716  0.74979189  0.25728316    -0.02700
Br2331     Br  0.70675825  0.74028566  0.26801440    -0.03500
Br2332     Br  0.67443678  0.70673226  0.22590377     0.00400
C2333       C  0.72960046  0.81487625  0.24060938     0.01800
C2334       C  0.73460751  0.81819184  0.25268735     0.04700
C2335       C  0.74776127  0.81875786  0.25465545    -0.11400
C2336       C  0.75619082  0.81548101  0.24498261     0.24000
C2337       C  0.75146251  0.81173136  0.23321121    -0.12000
C2338       C  0.73837488  0.81159830  0.23088152     0.05400
C2339       C  0.77010564  0.81592514  0.24711250     0.27800
C2340       C  0.77719685  0.82610507  0.24251599    -0.12700
C2341       C  0.79042195  0.82611499  0.24368533     0.05900
C2342       C  0.79667626  0.81603338  0.24967225    -0.08600
C2343       C  0.78952804  0.80606880  0.25468580     0.06700
C2344       C  0.77632642  0.80593920  0.25325625    -0.13000
Br2345     Br  0.76322050  0.80659983  0.22023445    -0.05100
Br2346     Br  0.72402926  0.82193768  0.26707626     0.00600
Br2347     Br  0.79991402  0.84020925  0.23745966     0.01000
Br2348     Br  0.76674320  0.79184770  0.25932056    -0.03400
Br2349     Br  0.73323042  0.80658690  0.21409377     0.01100
Br2350     Br  0.75446987  0.82420661  0.27069008    -0.02700
Br2351     Br  0.76870654  0.84001860  0.23453075    -0.03500
Br2352     Br  0.79783821  0.79223845  0.26301197     0.00400
C2353       C  0.70256695  0.56783249  0.26530683     0.01800
C2354       C  0.71009414  0.57720188  0.27103019     0.04700
C2355       C  0.70848278  0.59004190  0.26795670    -0.11400
C2356       C  0.69910844  0.59380755  0.25936590     0.24000
C2357       C  0.69158928  0.58457382  0.25358756    -0.12000
C2358       C  0.69303417  0.57175006  0.25675754     0.05400
C2359       C  0.69650424  0.60751451  0.25716023     0.27800
C2360       C  0.68710991  0.61380797  0.26418718    -0.12700
C2361       C  0.68475231  0.62676851  0.26235729     0.05900
C2362       C  0.69180983  0.63366989  0.25347974    -0.08600
C2363       C  0.70111311  0.62725345  0.24628912     0.06700
C2364       C  0.70340369  0.61427522  0.24813407    -0.13000
Br2365     Br  0.67900931  0.58967643  0.24151809    -0.05100
Br2366     Br  0.72120412  0.57295714  0.28461023     0.00600
Br2367     Br  0.67144194  0.63489243  0.27173660     0.01000
Br2368     Br  0.71616698  0.60565682  0.23843198    -0.03400
Br2369     Br  0.68110929  0.55984127  0.24995067     0.01100
Br2370     Br  0.71871332  0.60269193  0.27600373    -0.02700
Br2371     Br  0.67751895  0.60458466  0.27646441    -0.03500
Br2372     Br  0.71139847  0.63622543  0.23436250     0.00400
C2373       C  0.78124589  0.55304658  0.22687820     0.01800
C2374       C  0.77151516  0.56222328  0.22709514     0.04700
C2375       C  0.76180716  0.56161559  0.23604969    -0.11400
C2376       C  0.76001145  0.55055027  0.24298940     0.24000
C2377       C  0.76939033  0.54113733  0.24264176    -0.12000
C2378       C  0.78051278  0.54303681  0.23564438     0.05400
C2379       C  0.74789438  0.54871006  0.24985089     0.27800
C2380       C  0.74753094  0.54840336  0.26310993    -0.12700
C2381       C  0.73595785  0.54696174  0.26942422     0.05900
C2382       C  0.72449412  0.54725419  0.26262261    -0.08600
C2383       C  0.72491297  0.54809891  0.24937789     0.06700
C2384       C  0.73650689  0.54808794  0.24303785    -0.13000
Br2385     Br  0.76659796  0.52519420  0.25077077    -0.05100
Br2386     Br  0.76927760  0.57401172  0.21370360     0.00600
Br2387     Br  0.73611555  0.54471849  0.28738713     0.01000
Br2388     Br  0.73664296  0.54701096  0.22490395    -0.03400
Br2389     Br  0.79463766  0.53203693  0.23855112     0.01100
Br2390     Br  0.75040636  0.57568683  0.23826222    -0.02700
Br2391     Br  0.76282863  0.55057511  0.27266872    -0.03500
Br2392     Br  0.70968000  0.54874768  0.23961198     0.00400
C2393       C  0.80053235  0.57496767  0.21816523     0.01800
C2394       C  0.79873228  0.58624847  0.21121656     0.04700
C2395       C  0.80317449  0.59784323  0.21589748    -0.11400
C2396       C  0.81072322  0.59826982  0.22677905     0.24000
C2397       C  0.81295462  0.58707883  0.23351160    -0.12000
C2398       C  0.80771572  0.57555422  0.22937411     0.05400
C2399       C  0.81694102  0.61037210  0.23052182     0.27800
C2400       C  0.82750350  0.61473529  0.22379809    -0.12700
C2401       C  0.83248269  0.62680860  0.22625052     0.05900
C2402       C  0.82731766  0.63449893  0.23584065    -0.08600
C2403       C  0.81724449  0.62970728  0.24313845     0.06700
C2404       C  0.81191750  0.61787465  0.24027175    -0.13000
Br2405     Br  0.82398455  0.58746118  0.24792736    -0.05100
Br2406     Br  0.79131384  0.58601298  0.19456252     0.00600
Br2407     Br  0.84648923  0.63271743  0.21647970     0.01000
Br2408     Br  0.79718806  0.61219468  0.24918168    -0.03400
Br2409     Br  0.81205286  0.56035702  0.23813449     0.01100
Br2410     Br  0.79926421  0.61327051  0.20716232    -0.02700
Br2411     Br  0.83497699  0.60417004  0.21098839    -0.03500
Br2412     Br  0.80999981  0.63954395  0.25663068     0.00400
C2413       C  0.74224954  0.46263190  0.29033706     0.01800
C2414       C  0.74968272  0.47359478  0.29198970     0.04700
C2415       C  0.74519294  0.48544456  0.28799605    -0.11400
C2416       C  0.73287981  0.48673495  0.28329575     0.24000
C2417       C  0.72527532  0.47598301  0.28206124    -0.12000
C2418       C  0.72988411  0.46405532  0.28562349     0.05400
C2419       C  0.72742504  0.49949587  0.28091468     0.27800
C2420       C  0.72320975  0.50695395  0.29109604    -0.12700
C2421       C  0.71732173  0.51865625  0.28891576     0.05900
C2422       C  0.71532535  0.52298276  0.27645491    -0.08600
C2423       C  0.71897796  0.51511285  0.26630730     0.06700
C2424       C  0.72552940  0.50376321  0.26852580    -0.13000
Br2425     Br  0.70813904  0.47777677  0.27626607    -0.05100
Br2426     Br  0.76541755  0.47301636  0.30103235     0.00600
Br2427     Br  0.71168724  0.52850520  0.30321326     0.01000
Br2428     Br  0.73165534  0.49377791  0.25457400    -0.03400
Br2429     Br  0.71831110  0.45022971  0.28621615     0.01100
Br2430     Br  0.75571926  0.50014795  0.28934679    -0.02700
Br2431     Br  0.72511016  0.50086690  0.30810582    -0.03500
Br2432     Br  0.71317858  0.51844649  0.24954262     0.00400
C2433       C  0.77453058  0.46477348  0.19985792     0.01800
C2434       C  0.76913575  0.47456745  0.19255967     0.04700
C2435       C  0.77111761  0.48725448  0.19580191    -0.11400
C2436       C  0.77718751  0.49043651  0.20718423     0.24000
C2437       C  0.78104953  0.48068379  0.21532615    -0.12000
C2438       C  0.78063681  0.46800580  0.21125007     0.05400
C2439       C  0.78100830  0.50381737  0.20954402     0.27800
C2440       C  0.79378548  0.50723612  0.20848421    -0.12700
C2441       C  0.79733783  0.51997193  0.20915213     0.05900
C2442       C  0.78808754  0.52962676  0.20942300    -0.08600
C2443       C  0.77530496  0.52615872  0.20985928     0.06700
C2444       C  0.77188515  0.51339832  0.21107851    -0.13000
Br2445     Br  0.78760140  0.48481886  0.23177018    -0.05100
Br2446     Br  0.75941033  0.47080767  0.17759634     0.00600
Br2447     Br  0.81505325  0.52400579  0.20984580     0.01000
Br2448     Br  0.75464279  0.50900461  0.21448930    -0.03400
Br2449     Br  0.79055487  0.45577245  0.22011595     0.01100
Br2450     Br  0.76664297  0.50019710  0.18385271    -0.02700
Br2451     Br  0.80649580  0.49459063  0.20517937    -0.03500
Br2452     Br  0.76249226  0.53843972  0.20648445     0.00400
C2453       C  0.76649290  0.43807363  0.21087484     0.01800
C2454       C  0.75561257  0.44472478  0.21488665     0.04700
C2455       C  0.75165026  0.44423250  0.22754916    -0.11400
C2456       C  0.75776242  0.43621242  0.23610489     0.24000
C2457       C  0.76774868  0.42856089  0.23187780    -0.12000
C2458       C  0.77243419  0.42982873  0.21952414     0.05400
C2459       C  0.75465909  0.43674257  0.24980402     0.27800
C2460       C  0.76259126  0.44345121  0.25798793    -0.12700
C2461       C  0.76050619  0.44320687  0.27102636     0.05900
C2462       C  0.74961428  0.43754425  0.27605834    -0.08600
C2463       C  0.74168520  0.43065802  0.26784947     0.06700
C2464       C  0.74436023  0.43009992  0.25479406    -0.13000
Br2465     Br  0.77541719  0.41678125  0.24339098    -0.05100
Br2466     Br  0.74561287  0.45409857  0.20306854     0.00600
Br2467     Br  0.77373690  0.44884931  0.28199225     0.01000
Br2468     Br  0.73410230  0.42009540  0.24366625    -0.03400
Br2469     Br  0.78803438  0.42155848  0.21546936     0.01100
Br2470     Br  0.73826102  0.45507104  0.23341677    -0.02700
Br2471     Br  0.77641252  0.45306568  0.25133738    -0.03500
Br2472     Br  0.72747521  0.42156507  0.27423119     0.00400
C2473       C  0.75267239  0.17355549  0.21377124     0.01800
C2474       C  0.74374144  0.18053950  0.22088432     0.04700
C2475       C  0.74437650  0.18073619  0.23416350    -0.11400
C2476       C  0.75411295  0.17434038  0.24047449     0.24000
C2477       C  0.76316640  0.16761768  0.23347683    -0.12000
C2478       C  0.76234770  0.16699717  0.22023543     0.05400
C2479       C  0.75474436  0.17444324  0.25450847     0.27800
C2480       C  0.76175944  0.18369620  0.26086742    -0.12700
C2481       C  0.76276068  0.18349946  0.27411174     0.05900
C2482       C  0.75697562  0.17380937  0.28113758    -0.08600
C2483       C  0.74966457  0.16469702  0.27468623     0.06700
C2484       C  0.74855074  0.16508149  0.26145435    -0.13000
Br2485     Br  0.77672448  0.15920884  0.24218767    -0.05100
Br2486     Br  0.73095540  0.19051071  0.21265733     0.00600
Br2487     Br  0.77150602  0.19703700  0.28251389     0.01000
Br2488     Br  0.73869362  0.15261846  0.25266271    -0.03400
Br2489     Br  0.77416953  0.15641050  0.21125519     0.01100
Br2490     Br  0.73192268  0.18980796  0.24385873    -0.02700
Br2491     Br  0.77009555  0.19659527  0.25129547    -0.03500
Br2492     Br  0.74160655  0.15115708  0.28364441     0.00400
C2493       C  0.74054376  0.35024034  0.31133769     0.01800
C2494       C  0.73357756  0.35537478  0.30114769     0.04700
C2495       C  0.73483320  0.36819231  0.29787053    -0.11400
C2496       C  0.74316515  0.37605312  0.30453399     0.24000
C2497       C  0.75016581  0.37100119  0.31461204    -0.12000
C2498       C  0.74887306  0.35822492  0.31801514     0.05400
C2499       C  0.74402834  0.38980103  0.30148514     0.27800
C2500       C  0.75388370  0.39452817  0.29396048    -0.12700
C2501       C  0.75537730  0.40766462  0.29233462     0.05900
C2502       C  0.74665432  0.41617862  0.29773988    -0.08600
C2503       C  0.73625491  0.41127358  0.30446894     0.06700
C2504       C  0.73514749  0.39825232  0.30657571    -0.13000
Br2505     Br  0.76149520  0.38175281  0.32385467    -0.05100
Br2506     Br  0.72293007  0.34482627  0.29087920     0.00600
Br2507     Br  0.76983146  0.41385604  0.28345649     0.01000
Br2508     Br  0.72172655  0.39196753  0.31701589    -0.03400
Br2509     Br  0.75831929  0.35189373  0.33217676     0.01100
Br2510     Br  0.72523663  0.37509414  0.28407979    -0.02700
Br2511     Br  0.76551454  0.38291685  0.28618738    -0.03500
Br2512     Br  0.72335458  0.42240883  0.31096612     0.00400
C2513       C  0.74154377  0.27434290  0.31467054     0.01800
C2514       C  0.75012068  0.26753204  0.30709585     0.04700
C2515       C  0.75203565  0.25458651  0.30909454    -0.11400
C2516       C  0.74525899  0.24827454  0.31853666     0.24000
C2517       C  0.73655159  0.25498759  0.32600470    -0.12000
C2518       C  0.73462560  0.26796777  0.32403860     0.05400
C2519       C  0.74714983  0.23450036  0.32025848     0.27800
C2520       C  0.74023728  0.22594010  0.31288403    -0.12700
C2521       C  0.74314158  0.21299844  0.31315674     0.05900
C2522       C  0.75278118  0.20844229  0.32113874    -0.08600
C2523       C  0.75923545  0.21702154  0.32900755     0.06700
C2524       C  0.75649586  0.22999409  0.32849465    -0.13000
Br2525     Br  0.72761539  0.24641338  0.33920821    -0.05100
Br2526     Br  0.75893562  0.27583270  0.29361175     0.00600
Br2527     Br  0.73452978  0.20178513  0.30173841     0.01000
Br2528     Br  0.76565476  0.24171285  0.33892265    -0.03400
Br2529     Br  0.72294822  0.27703990  0.33465969     0.01100
Br2530     Br  0.76419819  0.24545587  0.29908627    -0.02700
Br2531     Br  0.72694456  0.23211684  0.30216665    -0.03500
Br2532     Br  0.77158439  0.21110827  0.34082120     0.00400
C2533       C  0.76544024  0.35227192  0.17577108     0.01800
C2534       C  0.76271217  0.36137988  0.16654724     0.04700
C2535       C  0.76456789  0.37427068  0.16918144    -0.11400
C2536       C  0.76870317  0.37817968  0.18121048     0.24000
C2537       C  0.77138843  0.36909371  0.19043895    -0.12000
C2538       C  0.76993344  0.35620531  0.18769556     0.05400
C2539       C  0.77029093  0.39182949  0.18415767     0.27800
C2540       C  0.78224902  0.39737848  0.18341599    -0.12700
C2541       C  0.78372673  0.41032264  0.18585288     0.05900
C2542       C  0.77315807  0.41799795  0.18893168    -0.08600
C2543       C  0.76116858  0.41234871  0.18956393     0.06700
C2544       C  0.75982305  0.39928504  0.18753428    -0.13000
Br2545     Br  0.77700682  0.37440399  0.20690966    -0.05100
Br2546     Br  0.75683505  0.35615318  0.15017528     0.00600
Br2547     Br  0.80045329  0.41739362  0.18477494     0.01000
Br2548     Br  0.74354427  0.39150650  0.18908699    -0.03400
Br2549     Br  0.77378170  0.34402403  0.20055343     0.01100
Br2550     Br  0.76176092  0.38662320  0.15623890    -0.02700
Br2551     Br  0.79659663  0.38719948  0.17869446    -0.03500
Br2552     Br  0.74630735  0.42250164  0.19157307     0.00400
C2553       C  0.75064870  0.21037648  0.17459381     0.01800
C2554       C  0.74387119  0.21677460  0.16512072     0.04700
C2555       C  0.74449129  0.22998365  0.16430794    -0.11400
C2556       C  0.75176043  0.23685683  0.17301837     0.24000
C2557       C  0.75834392  0.23049401  0.18259770    -0.12000
C2558       C  0.75780699  0.21730256  0.18338531     0.05400
C2559       C  0.75266597  0.25077473  0.17206130     0.27800
C2560       C  0.76252697  0.25623022  0.16517040    -0.12700
C2561       C  0.76379691  0.26940321  0.16474965     0.05900
C2562       C  0.75521882  0.27725373  0.17135302    -0.08600
C2563       C  0.74521705  0.27170629  0.17811017     0.06700
C2564       C  0.74396001  0.25852503  0.17842130    -0.13000
Br2565     Br  0.76819328  0.23993303  0.19458633    -0.05100
Br2566     Br  0.73424944  0.20746290  0.15283241     0.00600
Br2567     Br  0.77710466  0.27651511  0.15467743     0.01000
Br2568     Br  0.73050458  0.25094828  0.18788136    -0.03400
Br2569     Br  0.76654732  0.20877277  0.19683250     0.01100
Br2570     Br  0.73565871  0.23872657  0.15108950    -0.02700
Br2571     Br  0.77439811  0.24551175  0.15645015    -0.03500
Br2572     Br  0.73363523  0.28197034  0.18772345     0.00400
C2573       C  0.75444171  0.31587176  0.20961215     0.01800
C2574       C  0.74659068  0.32530174  0.21494498     0.04700
C2575       C  0.74453439  0.32574438  0.22808162    -0.11400
C2576       C  0.75043539  0.31695229  0.23604804     0.24000
C2577       C  0.75842532  0.30771483  0.23079413    -0.12000
C2578       C  0.76021129  0.30698752  0.21764709     0.05400
C2579       C  0.74780500  0.31691361  0.24988430     0.27800
C2580       C  0.75489456  0.32442347  0.25819792    -0.12700
C2581       C  0.75294040  0.32366788  0.27133356     0.05900
C2582       C  0.74424558  0.31494906  0.27634354    -0.08600
C2583       C  0.73687672  0.30771435  0.26790818     0.06700
C2584       C  0.73851954  0.30888144  0.25476880    -0.13000
Br2585     Br  0.76690662  0.29599065  0.24174049    -0.05100
Br2586     Br  0.73886497  0.33796806  0.20444577     0.00600
Br2587     Br  0.76164484  0.33525261  0.28230716     0.01000
Br2588     Br  0.72809860  0.29940374  0.24329479    -0.03400
Br2589     Br  0.76972001  0.29310038  0.21068644     0.01100
Br2590     Br  0.73355764  0.33836317  0.23525518    -0.02700
Br2591     Br  0.76738532  0.33567075  0.25150119    -0.03500
Br2592     Br  0.72495716  0.29561505  0.27415543     0.00400
C2593       C  0.75345175  0.06809599  0.18914155     0.01800
C2594       C  0.74275828  0.07451330  0.18435107     0.04700
C2595       C  0.74276196  0.08769017  0.18312704    -0.11400
C2596       C  0.75335149  0.09471221  0.18677496     0.24000
C2597       C  0.76383440  0.08845748  0.19201811    -0.12000
C2598       C  0.76398696  0.07519283  0.19299848     0.05400
C2599       C  0.75350072  0.10859803  0.18458540     0.27800
C2600       C  0.75891133  0.11349239  0.17351237    -0.12700
C2601       C  0.75823885  0.12650034  0.17095081     0.05900
C2602       C  0.75194220  0.13471742  0.17933064    -0.08600
C2603       C  0.74657294  0.12979547  0.19045172     0.06700
C2604       C  0.74746936  0.11682889  0.19311026    -0.13000
Br2605     Br  0.77811463  0.09814267  0.19752270    -0.05100
Br2606     Br  0.72787663  0.06529810  0.17943551     0.00600
Br2607     Br  0.76547406  0.13298481  0.15565725     0.01000
Br2608     Br  0.74051068  0.11023832  0.20849895    -0.03400
Br2609     Br  0.77907562  0.06686114  0.19852907     0.01100
Br2610     Br  0.72834792  0.09618686  0.17601288    -0.02700
Br2611     Br  0.76704311  0.10225741  0.16173027    -0.03500
Br2612     Br  0.73835222  0.14083380  0.20237471     0.00400
C2613       C  0.77433556  0.04869011  0.27574858     0.01800
C2614       C  0.78110006  0.05572713  0.26670328     0.04700
C2615       C  0.77678485  0.05658634  0.25419249    -0.11400
C2616       C  0.76607936  0.04987317  0.25033631     0.24000
C2617       C  0.75919064  0.04298227  0.25924304    -0.12000
C2618       C  0.76311583  0.04260251  0.27192689     0.05400
C2619       C  0.76281822  0.04909187  0.23671238     0.27800
C2620       C  0.75291230  0.05629416  0.23164465    -0.12700
C2621       C  0.74956257  0.05497012  0.21882571     0.05900
C2622       C  0.75682191  0.04716403  0.21072337    -0.08600
C2623       C  0.76745979  0.04093845  0.21576675     0.06700
C2624       C  0.76992717  0.04123883  0.22874309    -0.13000
Br2625     Br  0.74464147  0.03358733  0.25383660    -0.05100
Br2626     Br  0.79734078  0.06258462  0.27057895     0.00600
Br2627     Br  0.73482486  0.06365003  0.21292796     0.01000
Br2628     Br  0.78308768  0.03075990  0.23562766    -0.03400
Br2629     Br  0.75280393  0.03386325  0.28390953     0.01100
Br2630     Br  0.78590504  0.06646685  0.24201790    -0.02700
Br2631     Br  0.74409663  0.06808856  0.24235220    -0.03500
Br2632     Br  0.77982858  0.03342339  0.20488216     0.00400
C2633       C  0.77120430  0.13512915  0.31229963     0.01800
C2634       C  0.77084751  0.12551344  0.32138431     0.04700
C2635       C  0.77296199  0.11285803  0.31781363    -0.11400
C2636       C  0.77519136  0.10967166  0.30507523     0.24000
C2637       C  0.77588133  0.11930779  0.29605136    -0.12000
C2638       C  0.77413572  0.13198274  0.29967664     0.05400
C2639       C  0.77711749  0.09622109  0.30127511     0.27800
C2640       C  0.78928866  0.09099905  0.30113762    -0.12700
C2641       C  0.79105861  0.07802640  0.29889409     0.05900
C2642       C  0.78061385  0.07004496  0.29644661    -0.08600
C2643       C  0.76843722  0.07546915  0.29624944     0.06700
C2644       C  0.76674737  0.08849403  0.29846462    -0.13000
Br2645     Br  0.77916684  0.11504397  0.27868009    -0.05100
Br2646     Br  0.76807062  0.12980018  0.33881116     0.00600
Br2647     Br  0.80796362  0.07127696  0.30002995     0.01000
Br2648     Br  0.75011049  0.09580043  0.29823789    -0.03400
Br2649     Br  0.77583788  0.14500501  0.28724767     0.01100
Br2650     Br  0.77300224  0.09982847  0.33037946    -0.02700
Br2651     Br  0.80353863  0.10167296  0.30457696    -0.03500
Br2652     Br  0.75380832  0.06503257  0.29479214     0.00400
C2653       C  0.72458793  0.96169620  0.21390548     0.01800
C2654       C  0.72676493  0.96552915  0.20133234     0.04700
C2655       C  0.73315653  0.97682745  0.19880852    -0.11400
C2656       C  0.73792295  0.98421941  0.20877046     0.24000
C2657       C  0.73655720  0.98001062  0.22123681    -0.12000
C2658       C  0.72924273  0.96929147  0.22383555     0.05400
C2659       C  0.74258842  0.99719435  0.20618470     0.27800
C2660       C  0.75416675  0.99905182  0.20006838    -0.12700
C2661       C  0.75717548  0.01094729  0.19509730     0.05900
C2662       C  0.74943154  0.02155747  0.19771548    -0.08600
C2663       C  0.73804459  0.01969389  0.20429107     0.06700
C2664       C  0.73458767  0.00759103  0.20836606    -0.13000
Br2665     Br  0.74422530  0.98942762  0.23477961    -0.05100
Br2666     Br  0.72034744  0.95573210  0.18737085     0.00600
Br2667     Br  0.77095028  0.01197239  0.18328923     0.01000
Br2668     Br  0.71833485  0.00506674  0.21609101    -0.03400
Br2669     Br  0.72368639  0.96688043  0.24082504     0.01100
Br2670     Br  0.73468383  0.98258933  0.18164808    -0.02700
Br2671     Br  0.76567308  0.98508756  0.19815443    -0.03500
Br2672     Br  0.72598091  0.03314828  0.20574948     0.00400
C2673       C  0.70802729  0.91774322  0.22200000     0.01800
C2674       C  0.71352099  0.90891021  0.21361244     0.04700
C2675       C  0.71110927  0.89590095  0.21480679    -0.11400
C2676       C  0.70286488  0.89148761  0.22415822     0.24000
C2677       C  0.69705170  0.90021322  0.23231560    -0.12000
C2678       C  0.69914553  0.91325069  0.23089645     0.05400
C2679       C  0.70012051  0.87770536  0.22527781     0.27800
C2680       C  0.68995884  0.87217760  0.21871428    -0.12700
C2681       C  0.68737314  0.85917337  0.21998477     0.05900
C2682       C  0.69488008  0.85159200  0.22790966    -0.08600
C2683       C  0.70514378  0.85717982  0.23428984     0.06700
C2684       C  0.70771917  0.87010827  0.23299570    -0.13000
Br2685     Br  0.68598063  0.89419209  0.24534322    -0.05100
Br2686     Br  0.72239181  0.91457920  0.19897428     0.00600
Br2687     Br  0.67332331  0.85184381  0.21120629     0.01000
Br2688     Br  0.72176737  0.87752721  0.24178514    -0.03400
Br2689     Br  0.68841131  0.92475157  0.24007792     0.01100
Br2690     Br  0.71871958  0.88402284  0.20329429    -0.02700
Br2691     Br  0.67958262  0.88252241  0.20802980    -0.03500
Br2692     Br  0.71621116  0.84707996  0.24443849     0.00400
C2693       C  0.79495871  0.95721133  0.28234714     0.01800
C2694       C  0.80375982  0.96714631  0.28314273     0.04700
C2695       C  0.79962617  0.97967355  0.28447227    -0.11400
C2696       C  0.78673030  0.98269417  0.28337276     0.24000
C2697       C  0.77795542  0.97285332  0.28203185    -0.12000
C2698       C  0.78199746  0.96019694  0.28263138     0.05400
C2699       C  0.78267056  0.99618184  0.28432668     0.27800
C2700       C  0.77672842  0.00069482  0.29532495    -0.12700
C2701       C  0.77527708  0.01373312  0.29732346     0.05900
C2702       C  0.78100788  0.02250566  0.28907705    -0.08600
C2703       C  0.78672959  0.01789149  0.27794417     0.06700
C2704       C  0.78662555  0.00488607  0.27516819    -0.13000
Br2705     Br  0.76044260  0.97665466  0.27914378    -0.05100
Br2706     Br  0.82162823  0.96387575  0.28204128     0.00600
Br2707     Br  0.76586521  0.01944188  0.31188484     0.01000
Br2708     Br  0.79286795  0.99877213  0.25919299    -0.03400
Br2709     Br  0.76979041  0.94733932  0.28580810     0.01100
Br2710     Br  0.81171236  0.99267559  0.28831448    -0.02700
Br2711     Br  0.77171407  0.98913281  0.30836122    -0.03500
Br2712     Br  0.79690181  0.02860643  0.26766442     0.00400
C2713       C  0.78843197  0.93616782  0.26273687     0.01800
C2714       C  0.77910818  0.92691783  0.26458833     0.04700
C2715       C  0.76839715  0.92667115  0.25686679    -0.11400
C2716       C  0.76603693  0.93662036  0.24844685     0.24000
C2717       C  0.77487618  0.94644378  0.24732693    -0.12000
C2718       C  0.78634711  0.94582167  0.25394171     0.05400
C2719       C  0.75410501  0.93680044  0.24112159     0.27800
C2720       C  0.75420693  0.93532881  0.22793383    -0.12700
C2721       C  0.74288059  0.93615181  0.22108819     0.05900
C2722       C  0.73118667  0.93661754  0.22746103    -0.08600
C2723       C  0.73118526  0.93695348  0.24075963     0.06700
C2724       C  0.74253316  0.93807003  0.24743951    -0.13000
Br2725     Br  0.77102732  0.96105895  0.23730543    -0.05100
Br2726     Br  0.78084014  0.91467629  0.27785788     0.00600
Br2727     Br  0.74379524  0.93740208  0.20308390     0.01000
Br2728     Br  0.74219658  0.94228939  0.26515522    -0.03400
Br2729     Br  0.79928549  0.95804832  0.25092817     0.01100
Br2730     Br  0.75718080  0.91244723  0.25759245    -0.02700
Br2731     Br  0.76987200  0.93215961  0.21923959    -0.03500
Br2732     Br  0.71569847  0.93710920  0.25004703     0.00400
C2733       C  0.81292163  0.91750053  0.26323400     0.01800
C2734       C  0.80505545  0.90891013  0.25682119     0.04700
C2735       C  0.80870903  0.89621001  0.25576703    -0.11400
C2736       C  0.82123656  0.89262206  0.25820882     0.24000
C2737       C  0.83002035  0.90198842  0.26139908    -0.12000
C2738       C  0.82587533  0.91436525  0.26391007     0.05400
C2739       C  0.82530201  0.87921390  0.25684446     0.27800
C2740       C  0.82711810  0.87181631  0.26760822    -0.12700
C2741       C  0.83124220  0.85922389  0.26652258     0.05900
C2742       C  0.83259651  0.85339333  0.25442883    -0.08600
C2743       C  0.83109514  0.86117948  0.24357848     0.06700
C2744       C  0.82768289  0.87399744  0.24488671    -0.13000
Br2745     Br  0.84759487  0.89770526  0.26286823    -0.05100
Br2746     Br  0.79496057  0.91476121  0.24303224     0.00600
Br2747     Br  0.83555245  0.85074808  0.28205117     0.01000
Br2748     Br  0.82620764  0.88465462  0.23024691    -0.03400
Br2749     Br  0.83800530  0.92729336  0.26768656     0.01100
Br2750     Br  0.79651708  0.88391518  0.25047629    -0.02700
Br2751     Br  0.82357332  0.87905379  0.28397957    -0.03500
Br2752     Br  0.83369256  0.85495492  0.22662751     0.00400
C2753       C  0.76444140  0.30161254  0.06731240     0.01800
C2754       C  0.77382000  0.29566553  0.07467389     0.04700
C2755       C  0.77383868  0.29693038  0.08791912    -0.11400
C2756       C  0.76508568  0.30488237  0.09394278     0.24000
C2757       C  0.75596285  0.31117537  0.08670191    -0.12000
C2758       C  0.75555879  0.30954904  0.07351366     0.05400
C2759       C  0.76541350  0.30670068  0.10790365     0.27800
C2760       C  0.75772845  0.29928658  0.11565134    -0.12700
C2761       C  0.75731352  0.30147994  0.12874007     0.05900
C2762       C  0.76456736  0.31118431  0.13426567    -0.08600
C2763       C  0.77257757  0.31836074  0.12653440     0.06700
C2764       C  0.77298777  0.31612240  0.11339574    -0.13000
Br2765     Br  0.74408501  0.32223055  0.09499372    -0.05100
Br2766     Br  0.78787906  0.28743100  0.06680519     0.00600
Br2767     Br  0.74700695  0.29078135  0.13907437     0.01000
Br2768     Br  0.78373071  0.32608947  0.10279387    -0.03400
Br2769     Br  0.74277221  0.31857730  0.06418432     0.01100
Br2770     Br  0.78602028  0.28793424  0.09793512    -0.02700
Br2771     Br  0.74767265  0.28613871  0.10819332    -0.03500
Br2772     Br  0.78248252  0.33167135  0.13381098     0.00400
C2773       C  0.74389862  0.21353666  0.05220587     0.01800
C2774       C  0.75562189  0.21706520  0.05749877     0.04700
C2775       C  0.75857978  0.22985278  0.05919111    -0.11400
C2776       C  0.75131840  0.23914032  0.05317394     0.24000
C2777       C  0.73993462  0.23566493  0.04736073    -0.12000
C2778       C  0.73565338  0.22322498  0.04820316     0.05400
C2779       C  0.75581188  0.25238145  0.05250551     0.27800
C2780       C  0.74866731  0.26216648  0.05791312    -0.12700
C2781       C  0.75140753  0.27472569  0.05496061     0.05900
C2782       C  0.76277930  0.27784501  0.04877814    -0.08600
C2783       C  0.77085020  0.26790258  0.04489870     0.06700
C2784       C  0.76682524  0.25534003  0.04575627    -0.13000
Br2785     Br  0.73044878  0.24767739  0.03758090    -0.05100
Br2786     Br  0.76872336  0.20501024  0.06056898     0.00600
Br2787     Br  0.73829695  0.28697045  0.05739010     0.01000
Br2788     Br  0.77602799  0.24231796  0.03690357    -0.03400
Br2789     Br  0.71810665  0.22011969  0.04516310     0.01100
Br2790     Br  0.77264693  0.23466501  0.06963437    -0.02700
Br2791     Br  0.73487124  0.25835787  0.06910018    -0.03500
Br2792     Br  0.78768325  0.27093718  0.03900413     0.00400
C2793       C  0.74452367  0.19027573  0.07178651     0.01800
C2794       C  0.73713758  0.19673675  0.08083272     0.04700
C2795       C  0.73888879  0.19448378  0.09383908    -0.11400
C2796       C  0.74768870  0.18543821  0.09796598     0.24000
C2797       C  0.75529706  0.17921637  0.08905211    -0.12000
C2798       C  0.75378254  0.18160568  0.07608765     0.05400
C2799       C  0.74854715  0.18202403  0.11161212     0.27800
C2800       C  0.75792924  0.18730741  0.11930736    -0.12700
C2801       C  0.75861536  0.18425542  0.13222265     0.05900
C2802       C  0.74999127  0.17562380  0.13761774    -0.08600
C2803       C  0.74067438  0.17021826  0.12975816     0.06700
C2804       C  0.74000923  0.17338818  0.11685257    -0.13000
Br2805     Br  0.76751004  0.16697518  0.09466654    -0.05100
Br2806     Br  0.72356636  0.20752253  0.07564719     0.00600
Br2807     Br  0.77091746  0.19287368  0.14247593     0.01000
Br2808     Br  0.72745346  0.16578228  0.10616188    -0.03400
Br2809     Br  0.76443429  0.17261956  0.06427287     0.01100
Br2810     Br  0.72888160  0.20342227  0.10614001    -0.02700
Br2811     Br  0.76979960  0.19890051  0.11204001    -0.03500
Br2812     Br  0.72894761  0.15813782  0.13639876     0.00400
C2813       C  0.79757944  0.26210465  0.96638992     0.01800
C2814       C  0.79877366  0.25588023  0.97813653     0.04700
C2815       C  0.79143891  0.25968837  0.98857640    -0.11400
C2816       C  0.78323191  0.27005834  0.98764903     0.24000
C2817       C  0.78182184  0.27614457  0.97599268    -0.12000
C2818       C  0.78911956  0.27238304  0.96551500     0.05400
C2819       C  0.77850508  0.27628702  0.99937785     0.27800
C2820       C  0.76654964  0.27361629  0.00445961    -0.12700
C2821       C  0.76238939  0.27982469  0.01554654     0.05900
C2822       C  0.77037510  0.28839193  0.02184945    -0.08600
C2823       C  0.78234226  0.29103298  0.01661868     0.06700
C2824       C  0.78628203  0.28511847  0.00543552    -0.13000
Br2825     Br  0.77069675  0.29049044  0.97483250    -0.05100
Br2826     Br  0.81138217  0.24301673  0.98064877     0.00600
Br2827     Br  0.74552953  0.27718789  0.02154857     0.01000
Br2828     Br  0.80249911  0.28915144  0.99831127    -0.03400
Br2829     Br  0.78925118  0.28305101  0.95096420     0.01100
Br2830     Br  0.79329451  0.25137625  0.00459897    -0.02700
Br2831     Br  0.75590527  0.26158398  0.99607315    -0.03500
Br2832     Br  0.79397015  0.30211342  0.02519977     0.00400
C2833       C  0.81569098  0.25475496  0.92296019     0.01800
C2834       C  0.82140463  0.26498949  0.91661109     0.04700
C2835       C  0.82332780  0.26453938  0.90349082    -0.11400
C2836       C  0.81893243  0.25427244  0.89638199     0.24000
C2837       C  0.81301766  0.24419775  0.90255192    -0.12000
C2838       C  0.81193997  0.24416202  0.91580934     0.05400
C2839       C  0.82086438  0.25404052  0.88245650     0.27800
C2840       C  0.81307884  0.26129330  0.87454255    -0.12700
C2841       C  0.81535784  0.26168576  0.86146170     0.05900
C2842       C  0.82551261  0.25481350  0.85616321    -0.08600
C2843       C  0.83321948  0.24745409  0.86413118     0.06700
C2844       C  0.83087941  0.24706117  0.87719386    -0.13000
Br2845     Br  0.80638098  0.23043233  0.89273901    -0.05100
Br2846     Br  0.82615385  0.28010526  0.92557767     0.00600
Br2847     Br  0.80395821  0.27105568  0.85084615     0.01000
Br2848     Br  0.84146665  0.23699164  0.88797222    -0.03400
Br2849     Br  0.80665484  0.22899459  0.92394732     0.01100
Br2850     Br  0.83214728  0.27798825  0.89514048    -0.02700
Br2851     Br  0.79911270  0.27052210  0.88170747    -0.03500
Br2852     Br  0.84735977  0.23822619  0.85730902     0.00400
C2853       C  0.71465586  0.22916323  0.96811789     0.01800
C2854       C  0.71315671  0.23599118  0.97954114     0.04700
C2855       C  0.71860153  0.23154035  0.99080249    -0.11400
C2856       C  0.72495832  0.21990790  0.99102275     0.24000
C2857       C  0.72618841  0.21292206  0.97979915    -0.12000
C2858       C  0.72085536  0.21738400  0.96849488     0.05400
C2859       C  0.72833216  0.21401590  0.00332152     0.27800
C2860       C  0.74067823  0.21458954  0.00813877    -0.12700
C2861       C  0.74371972  0.20861175  0.01962940     0.05900
C2862       C  0.73437274  0.20214775  0.02647010    -0.08600
C2863       C  0.72209889  0.20121485  0.02129777     0.06700
C2864       C  0.71908410  0.20730026  0.00994528    -0.13000
Br2865     Br  0.73433596  0.19667392  0.98021426    -0.05100
Br2866     Br  0.70240808  0.25066830  0.98041551     0.00600
Br2867     Br  0.76092688  0.20824421  0.02526537     0.01000
Br2868     Br  0.70217622  0.20636618  0.00331562    -0.03400
Br2869     Br  0.71978848  0.20605771  0.95439621     0.01100
Br2870     Br  0.71668707  0.24096813  0.00623913    -0.02700
Br2871     Br  0.75343867  0.22329882  0.99873312    -0.03500
Br2872     Br  0.70905297  0.19189740  0.02984948     0.00400
C2873       C  0.72605886  0.23790857  0.94212879     0.01800
C2874       C  0.73191208  0.24834762  0.94794896     0.04700
C2875       C  0.74478090  0.25059891  0.94621185    -0.11400
C2876       C  0.75181214  0.24291769  0.93803143     0.24000
C2877       C  0.74593610  0.23310992  0.93141193    -0.12000
C2878       C  0.73313740  0.23046242  0.93354421     0.05400
C2879       C  0.76557826  0.24466248  0.93728173     0.27800
C2880       C  0.77074007  0.25415138  0.92969416    -0.12700
C2881       C  0.78348409  0.25749107  0.93107384     0.05900
C2882       C  0.79106656  0.25114256  0.93999313    -0.08600
C2883       C  0.78616646  0.24049245  0.94617752     0.06700
C2884       C  0.77340489  0.23748886  0.94512315    -0.13000
Br2885     Br  0.75566525  0.22323572  0.91958814    -0.05100
Br2886     Br  0.72221373  0.26043672  0.95735450     0.00600
Br2887     Br  0.79006211  0.27094781  0.92098872     0.01000
Br2888     Br  0.76646490  0.22389555  0.95490081    -0.03400
Br2889     Br  0.72586804  0.21645114  0.92475038     0.01100
Br2890     Br  0.75294012  0.26410435  0.95526413    -0.02700
Br2891     Br  0.76010768  0.26277534  0.91778464    -0.03500
Br2892     Br  0.79705916  0.22944311  0.95549341     0.00400
C2893       C  0.70315654  0.23741234  0.92288973     0.01800
C2894       C  0.70712205  0.24800737  0.91599486     0.04700
C2895       C  0.70552718  0.24834516  0.90279236    -0.11400
C2896       C  0.69958904  0.23830574  0.89646753     0.24000
C2897       C  0.69590636  0.22761998  0.90327169    -0.12000
C2898       C  0.69767165  0.22715263  0.91638213     0.05400
C2899       C  0.69636960  0.23925963  0.88284333     0.27800
C2900       C  0.68541584  0.24577663  0.87910461    -0.12700
C2901       C  0.68196171  0.24624076  0.86629572     0.05900
C2902       C  0.68944496  0.24017801  0.85710817    -0.08600
C2903       C  0.70039448  0.23357894  0.86089484     0.06700
C2904       C  0.70382432  0.23313744  0.87371008    -0.13000
Br2905     Br  0.68796361  0.21376075  0.89462605    -0.05100
Br2906     Br  0.71360580  0.26256232  0.92456494     0.00600
Br2907     Br  0.66664074  0.25470944  0.86143325     0.01000
Br2908     Br  0.71881379  0.22422065  0.87883544    -0.03400
Br2909     Br  0.69246615  0.21228575  0.92540411     0.01100
Br2910     Br  0.71106012  0.26272937  0.89330983    -0.02700
Br2911     Br  0.67505056  0.25394017  0.89164432    -0.03500
Br2912     Br  0.71118136  0.22563551  0.84854957     0.00400
C2913       C  0.81033523  0.21616578  0.57609569     0.01800
C2914       C  0.80580693  0.20787393  0.58536399     0.04700
C2915       C  0.80861568  0.20999759  0.59816480    -0.11400
C2916       C  0.81558212  0.22064812  0.60179778     0.24000
C2917       C  0.82009741  0.22894635  0.59260786    -0.12000
C2918       C  0.81815250  0.22630312  0.57979080     0.05400
C2919       C  0.81839218  0.22300123  0.61527508     0.27800
C2920       C  0.80923242  0.22868645  0.62299410    -0.12700
C2921       C  0.81171301  0.23066658  0.63584133     0.05900
C2922       C  0.82353699  0.22739746  0.64092782    -0.08600
C2923       C  0.83279869  0.22195194  0.63315768     0.06700
C2924       C  0.83019035  0.21962124  0.62036213    -0.13000
Br2925     Br  0.82913414  0.24385139  0.59764128    -0.05100
Br2926     Br  0.79724342  0.19271396  0.58048420     0.00600
Br2927     Br  0.79865705  0.23736095  0.64650332     0.01000
Br2928     Br  0.84273021  0.21178166  0.60978992    -0.03400
Br2929     Br  0.82710776  0.23612014  0.56739692     0.01100
Br2930     Br  0.80360179  0.19797569  0.61074330    -0.02700
Br2931     Br  0.79334012  0.23387739  0.61584654    -0.03500
Br2932     Br  0.84910694  0.21797153  0.64005283     0.00400
C2933       C  0.72333632  0.24029904  0.55136625     0.01800
C2934       C  0.73405616  0.24709639  0.54741287     0.04700
C2935       C  0.74612303  0.24163128  0.54807823    -0.11400
C2936       C  0.74805918  0.23046038  0.55494324     0.24000
C2937       C  0.73752926  0.22426951  0.56005197    -0.12000
C2938       C  0.72526559  0.22848882  0.55719772     0.05400
C2939       C  0.76108302  0.22526047  0.55657500     0.27800
C2940       C  0.76438501  0.21343000  0.55153689    -0.12700
C2941       C  0.77661433  0.20865739  0.55325555     0.05900
C2942       C  0.78653150  0.21665093  0.55704534    -0.08600
C2943       C  0.78321480  0.22873089  0.56177313     0.06700
C2944       C  0.77044641  0.23235107  0.56273321    -0.13000
Br2945     Br  0.73982168  0.21022209  0.57130008    -0.05100
Br2946     Br  0.73289509  0.26450363  0.54276181     0.00600
Br2947     Br  0.77910292  0.19085239  0.55192243     0.01000
Br2948     Br  0.76578009  0.24718156  0.57226604    -0.03400
Br2949     Br  0.71148620  0.21718216  0.55995922     0.01100
Br2950     Br  0.75990202  0.24935449  0.53914934    -0.02700
Br2951     Br  0.75264499  0.20406255  0.54132249    -0.03500
Br2952     Br  0.79552975  0.24133306  0.56529022     0.00400
C2953       C  0.70133405  0.24349683  0.57224215     0.01800
C2954       C  0.70981109  0.24929223  0.58074775     0.04700
C2955       C  0.70812968  0.24809369  0.59391472    -0.11400
C2956       C  0.69732102  0.24223705  0.59880821     0.24000
C2957       C  0.68888677  0.23637362  0.59046210    -0.12000
C2958       C  0.69112577  0.23653454  0.57735931     0.05400
C2959       C  0.69439586  0.24301914  0.61262466     0.27800
C2960       C  0.69660047  0.23271036  0.62056833    -0.12700
C2961       C  0.69384429  0.23347704  0.63359848     0.05900
C2962       C  0.68929550  0.24495508  0.63908474    -0.08600
C2963       C  0.68697806  0.25526852  0.63082765     0.06700
C2964       C  0.68926347  0.25413281  0.61774437    -0.13000
Br2965     Br  0.67379503  0.22874428  0.59700626    -0.05100
Br2966     Br  0.72267782  0.26041287  0.57481950     0.00600
Br2967     Br  0.69670170  0.21841274  0.64338935     0.01000
Br2968     Br  0.68512366  0.26781869  0.60653768    -0.03400
Br2969     Br  0.67986538  0.22716451  0.56653022     0.01100
Br2970     Br  0.72040155  0.25489671  0.60543638    -0.02700
Br2971     Br  0.70364360  0.21749202  0.61340128    -0.03500
Br2972     Br  0.68042852  0.27120066  0.63683694     0.00400
C2973       C  0.71935169  0.26821400  0.46095428     0.01800
C2974       C  0.70805251  0.26344790  0.46623014     0.04700
C2975       C  0.70796324  0.25802086  0.47836820    -0.11400
C2976       C  0.71884150  0.25811127  0.48594069     0.24000
C2977       C  0.73013554  0.26271146  0.48079319    -0.12000
C2978       C  0.73040666  0.26774800  0.46843294     0.05400
C2979       C  0.71760861  0.25579530  0.49987453     0.27800
C2980       C  0.71388806  0.26583633  0.50773816    -0.12700
C2981       C  0.71078722  0.26373866  0.52045975     0.05900
C2982       C  0.71150421  0.25148549  0.52571675    -0.08600
C2983       C  0.71574152  0.24148423  0.51794449     0.06700
C2984       C  0.71888753  0.24366766  0.50512600    -0.13000
Br2985     Br  0.74502910  0.26286380  0.49117113    -0.05100
Br2986     Br  0.69219311  0.26534337  0.45752124     0.00600
Br2987     Br  0.70518076  0.27791966  0.53054487     0.01000
Br2988     Br  0.72440959  0.22999270  0.49451185    -0.03400
Br2989     Br  0.74550283  0.27581372  0.46279250     0.01100
Br2990     Br  0.69265060  0.25101595  0.48507585    -0.02700
Br2991     Br  0.71242347  0.28254582  0.50079816    -0.03500
Br2992     Br  0.71596207  0.22458780  0.52435379     0.00400
C2993       C  0.72621187  0.28449587  0.41593583     0.01800
C2994       C  0.72295340  0.27658356  0.40567156     0.04700
C2995       C  0.72520771  0.28036467  0.39304399    -0.11400
C2996       C  0.73090909  0.29203425  0.39040201     0.24000
C2997       C  0.73465010  0.29970046  0.40057394    -0.12000
C2998       C  0.73207361  0.29616720  0.41315168     0.05400
C2999       C  0.73265540  0.29651755  0.37700790     0.27800
C3000       C  0.74313090  0.29260771  0.36983619    -0.12700
C3001       C  0.74502753  0.29716229  0.35743955     0.05900
C3002       C  0.73647591  0.30591020  0.35194414    -0.08600
C3003       C  0.72593833  0.30978628  0.35923961     0.06700
C3004       C  0.72405440  0.30508425  0.37158721    -0.13000
Br3005     Br  0.74324051  0.31526284  0.39714952    -0.05100
Br3006     Br  0.71434933  0.26104824  0.40859231     0.00600
Br3007     Br  0.75905444  0.29050413  0.34791967     0.01000
Br3008     Br  0.70950908  0.31027609  0.38118499    -0.03400
Br3009     Br  0.73646064  0.30773636  0.42653989     0.01100
Br3010     Br  0.71998700  0.26980117  0.37920009    -0.02700
Br3011     Br  0.75485467  0.28077772  0.37709415    -0.03500
Br3012     Br  0.71413087  0.32194010  0.35267348     0.00400
C3013       C  0.77491995  0.19650745  0.46885871     0.01800
C3014       C  0.78775725  0.19526879  0.47194633     0.04700
C3015       C  0.79205964  0.19879641  0.48398125    -0.11400
C3016       C  0.78342903  0.20284292  0.49327096     0.24000
C3017       C  0.77060681  0.20424167  0.49014636    -0.12000
C3018       C  0.76639119  0.20119436  0.47792639     0.05400
C3019       C  0.78772586  0.20449354  0.50652357     0.27800
C3020       C  0.79087731  0.19380307  0.51366219    -0.12700
C3021       C  0.79637028  0.19517807  0.52561651     0.05900
C3022       C  0.79740431  0.20724156  0.53120293    -0.08600
C3023       C  0.79389487  0.21793993  0.52419121     0.06700
C3024       C  0.78936810  0.21657892  0.51176852    -0.13000
Br3025     Br  0.75873330  0.20967593  0.50281466    -0.05100
Br3026     Br  0.79945514  0.18892405  0.45954625     0.00600
Br3027     Br  0.80327079  0.18043814  0.53378508     0.01000
Br3028     Br  0.78621342  0.23124346  0.50160165    -0.03400
Br3029     Br  0.74886765  0.20309376  0.47364559     0.01100
Br3030     Br  0.80978291  0.19789620  0.48783757    -0.02700
Br3031     Br  0.78791141  0.17718492  0.50689096    -0.03500
Br3032     Br  0.79670015  0.23452132  0.53096595     0.00400
C3033       C  0.77295788  0.20889070  0.44161530     0.01800
C3034       C  0.77195115  0.21831179  0.45097197     0.04700
C3035       C  0.76311511  0.22800340  0.44952358    -0.11400
C3036       C  0.75752796  0.22993094  0.43768262     0.24000
C3037       C  0.76188866  0.22289636  0.42728986    -0.12000
C3038       C  0.77043170  0.21295554  0.42926185     0.05400
C3039       C  0.74891525  0.24070927  0.43588905     0.27800
C3040       C  0.73594074  0.23920437  0.43768483    -0.12700
C3041       C  0.72789337  0.24967136  0.43701385     0.05900
C3042       C  0.73284568  0.26187810  0.43534114    -0.08600
C3043       C  0.74586659  0.26323423  0.43301527     0.06700
C3044       C  0.75383144  0.25264521  0.43316585    -0.13000
Br3045     Br  0.75641403  0.22693524  0.41050038    -0.05100
Br3046     Br  0.78676893  0.22266569  0.46035553     0.00600
Br3047     Br  0.71004459  0.24700097  0.43786935     0.01000
Br3048     Br  0.77169226  0.25449923  0.43043623    -0.03400
Br3049     Br  0.78232194  0.20894257  0.41623044     0.01100
Br3050     Br  0.75969184  0.23922987  0.46343119    -0.02700
Br3051     Br  0.72929303  0.22287411  0.44174065    -0.03500
Br3052     Br  0.75326776  0.27950884  0.43073783     0.00400
C3053       C  0.76695023  0.18492596  0.42354869     0.01800
C3054       C  0.77664555  0.17786738  0.41775521     0.04700
C3055       C  0.77614885  0.17510740  0.40477698    -0.11400
C3056       C  0.76642622  0.18010844  0.39724213     0.24000
C3057       C  0.75679654  0.18730028  0.40300055    -0.12000
C3058       C  0.75669497  0.18905061  0.41619630     0.05400
C3059       C  0.76630661  0.17751155  0.38336169     0.27800
C3060       C  0.77503497  0.18344714  0.37542154    -0.12700
C3061       C  0.77579343  0.18020969  0.36252653     0.05900
C3062       C  0.76678301  0.17198175  0.35700356    -0.08600
C3063       C  0.75825943  0.16574553  0.36518675     0.06700
C3064       C  0.75820704  0.16836867  0.37825941    -0.13000
Br3065     Br  0.74377858  0.19476657  0.39281643    -0.05100
Br3066     Br  0.79063520  0.17188332  0.42766912     0.00600
Br3067     Br  0.78988576  0.18668491  0.35311472     0.01000
Br3068     Br  0.74718033  0.15922874  0.38937242    -0.03400
Br3069     Br  0.74217457  0.19628512  0.42431013     0.01100
Br3070     Br  0.78850180  0.16396626  0.39739076    -0.02700
Br3071     Br  0.78585129  0.19632210  0.38229033    -0.03500
Br3072     Br  0.74720852  0.15273991  0.35897863     0.00400
loop_ 
_geom_bond_atom_site_label_1 
_geom_bond_atom_site_label_2 
_geom_bond_distance 
_geom_bond_site_symmetry_2 
_ccdc_geom_bond_type 
N1            C5   1.372       .  A
N1            C2   1.377       .  A
N1         C3033   1.470       .  S
C2            C3   1.380       .  A
C2         C3053   1.488       .  S
C3            C4   1.364       .  A
C3            H6   1.078       .  S
C4            C5   1.378       .  A
C4            H7   1.079       .  S
C5         C3013   1.482       .  S
N8           C12   1.374       .  A
N8            C9   1.376       .  A
N8         C3042   1.447       .  S
C9           C10   1.385       .  A
C9         C2993   1.519       .  S
C10          C11   1.375       .  A
C10          H13   1.079       .  S
C11          C12   1.381       .  A
C11          H14   1.080       .  S
C12        C2973   1.517       .  S
N15          C19   1.378       .  A
N15          C16   1.379       .  A
N15        C2933   1.458       .  S
C16          C17   1.382       .  A
C16        C2953   1.512       .  S
C17          C18   1.365       .  A
C17          H20   1.080       .  S
C18          C19   1.381       .  A
C18          H21   1.080       .  S
C19        C2982   1.508       .  S
N22          C26   1.370       .  A
N22          C23   1.371       .  A
N22        C2942   1.463       .  S
C23          C24   1.381       .  A
C23        C2913   1.483       .  S
C24          C25   1.364       .  A
C24          H27   1.080       .  S
C25          C26   1.380       .  A
C25          H28   1.080       .  S
C26        C3022   1.487       .  S
N29          C33   1.370       .  A
N29          C30   1.365       .  A
N29        C2873   1.450       .  S
C30          C31   1.383       .  A
C30        C2893   1.492       .  S
C31          C32   1.372       .  A
C31          H34   1.080       .  S
C32          C33   1.382       .  A
C32          H35   1.079       .  S
C33        C2853   1.499       .  S
N36          C40   1.368       .  A
N36          C37   1.367       .  A
N36        C2882   1.446       .  S
C37          C38   1.386       .  A
C37        C2833   1.502       .  S
C38          C39   1.376       .  A
C38          H41   1.079       .  S
C39          C40   1.381       .  A
C39          H42   1.080       .  S
C40        C2813   1.505       .  S
N43          C47   1.373       .  A
N43          C44   1.374       .  A
N43        C2773   1.456       .  S
C44          C45   1.383       .  A
C44        C2793   1.504       .  S
C45          C46   1.368       .  A
C45          H48   1.081       .  S
C46          C47   1.380       .  A
C46          H49   1.079       .  S
C47        C2862   1.499       .  S
N50          C54   1.370       .  A
N50          C51   1.373       .  A
N50        C2782   1.455       .  S
C51          C52   1.383       .  A
C51        C2753   1.505       .  S
C52          C53   1.369       .  A
C52          H55   1.081       .  S
C53          C54   1.382       .  A
C53          H56   1.081       .  S
C54        C2822   1.497       .  S
N57          C61   1.366       .  A
N57          C58   1.370       .  A
N57        C2713   1.438       .  S
C58          C59   1.389       .  A
C58        C2733   1.519       .  S
C59          C60   1.373       .  A
C59          H62   1.081       .  S
C60          C61   1.379       .  A
C60          H63   1.079       .  S
C61        C2693   1.501       .  S
N64          C68   1.367       .  A
N64          C65   1.374       .  A
N64        C2722   1.448       .  S
C65          C66   1.383       .  A
C65        C2673   1.506       .  S
C66          C67   1.375       .  A
C66          H69   1.080       .  S
C67          C68   1.382       .  A
C67          H70   1.080       .  S
C68        C2653   1.501       .  S
N71          C75   1.374       .  A
N71          C72   1.376       .  A
N71        C2613   1.455       .  S
C72          C73   1.381       .  A
C72        C2642   1.504       .  S
C73          C74   1.365       .  A
C73          H76   1.079       .  S
C74          C75   1.382       .  A
C74          H77   1.080       .  S
C75        C2702   1.505       .  S
N78          C82   1.372       .  A
N78          C79   1.370       .  A
N78        C2622   1.454       .  S
C79          C80   1.384       .  A
C79        C2593   1.498       .  S
C80          C81   1.371       .  A
C80          H83   1.080       .  S
C81          C82   1.380       .  A
C81          H84   1.081       .  S
C82        C2662   1.499       .  S
O85         Ni93   1.927       .  S
O85          C95   1.284       .  A
O86         Ni93   1.933       .  S
O86          C96   1.284       .  A
O87         Ni93   1.919       .  S
O87          C97   1.281       .  A
O88         Ni93   1.918       .  S
O88          C98   1.280       .  A
O89         Ni94   1.931       .  S
O89          C98   1.285       .  A
O90         Ni94   1.939       .  S
O90          C97   1.285       .  A
O91         Ni94   1.919       .  S
O91          C96   1.281       .  A
O92         Ni94   1.915       .  S
O92          C95   1.280       .  A
Ni93        Ni94   2.385       .  S
C95        C2562   1.489       .  S
C96        C2533   1.487       .  S
C97        C2762   1.492       .  S
C98        C2573   1.493       .  S
O99        Ni107   1.927       .  S
O99         C109   1.282       .  A
O100       Ni107   1.934       .  S
O100        C110   1.284       .  A
O101       Ni107   1.940       .  S
O101        C111   1.286       .  A
O102       Ni107   1.931       .  S
O102        C112   1.284       .  A
O103       Ni108   1.914       .  S
O103        C112   1.280       .  A
O104       Ni108   1.921       .  S
O104        C111   1.281       .  A
O105       Ni108   1.941       .  S
O105        C110   1.286       .  A
O106       Ni108   1.931       .  S
O106        C109   1.284       .  A
Ni107      Ni108   2.380       .  S
C109       C2582   1.497       .  S
C110       C3002   1.518       .  S
C111       C2493   1.504       .  S
C112       C2513   1.485       .  S
O113       Ni121   1.927       .  S
O113        C123   1.283       .  A
O114       Ni121   1.932       .  S
O114        C124   1.284       .  A
O115       Ni121   1.930       .  S
O115        C125   1.284       .  A
O116       Ni121   1.922       .  S
O116        C126   1.282       .  A
O117       Ni122   1.917       .  S
O117        C126   1.281       .  A
O118       Ni122   1.925       .  S
O118        C125   1.282       .  A
O119       Ni122   1.924       .  S
O119        C124   1.282       .  A
O120       Ni122   1.920       .  S
O120        C123   1.281       .  A
Ni121      Ni122   2.383       .  S
C123       C2473   1.496       .  S
C124       C2802   1.502       .  S
C125       C2602   1.490       .  S
C126       C2553   1.480       .  S
O127       Ni135   1.923       .  S
O127        C137   1.282       .  A
O128       Ni135   1.935       .  S
O128        C138   1.284       .  A
O129       Ni135   1.926       .  S
O129        C139   1.283       .  A
O130       Ni135   1.923       .  S
O130        C140   1.282       .  A
O131       Ni136   1.923       .  S
O131        C140   1.283       .  A
O132       Ni136   1.931       .  S
O132        C139   1.283       .  A
O133       Ni136   1.928       .  S
O133        C138   1.282       .  A
O134       Ni136   1.929       .  S
O134        C137   1.283       .  A
Ni135      Ni136   2.380       .  S
C137       C2522   1.491       .  S
C138       C2633   1.491       .  S
C139       C3062   1.512       .  S
C140       C2482   1.494       .  S
N141        C145   1.375       .  A
N141        C142   1.376       .  A
N141       C2453   1.458       .  S
C142        C143   1.381       .  A
C142       C2542   1.501       .  S
C143        C144   1.364       .  A
C143        H146   1.081       .  S
C144        C145   1.382       .  A
C144        H147   1.081       .  S
C145       C2433   1.504       .  S
N148        C152   1.373       .  A
N148        C149   1.370       .  A
N148       C2462   1.453       .  S
C149        C150   1.385       .  A
C149       C2502   1.502       .  S
C150        C151   1.371       .  A
C150        H153   1.079       .  S
C151        C152   1.379       .  A
C151        H154   1.082       .  S
C152       C2413   1.503       .  S
N155        C159   1.374       .  A
N155        C156   1.377       .  A
N155       C2373   1.460       .  S
C156        C157   1.382       .  A
C156       C2393   1.505       .  S
C157        C158   1.367       .  A
C157        H160   1.080       .  S
C158        C159   1.381       .  A
C158        H161   1.082       .  S
C159       C2442   1.503       .  S
N162        C166   1.368       .  A
N162        C163   1.373       .  A
N162       C2382   1.449       .  S
C163        C164   1.383       .  A
C163       C2353   1.509       .  S
C164        C165   1.374       .  A
C164        H167   1.082       .  S
C165        C166   1.382       .  A
C165        H168   1.080       .  S
C166       C2422   1.503       .  S
O169       Ni177   1.921       .  S
O169        C179   1.280       .  A
O170       Ni177   1.928       .  S
O170        C180   1.282       .  A
O171       Ni177   1.940       .  S
O171        C181   1.285       .  A
O172       Ni177   1.929       .  S
O172        C182   1.284       .  A
O173       Ni178   1.918       .  S
O173        C182   1.280       .  A
O174       Ni178   1.930       .  S
O174        C181   1.283       .  A
O175       Ni178   1.939       .  S
O175        C180   1.286       .  A
O176       Ni178   1.932       .  S
O176        C179   1.283       .  A
Ni177      Ni178   2.378       .  S
C179       C2333   1.521       .  S
C180       C2293   1.498       .  S
C181       C2682   1.499       .  S
C182       C2313   1.489       .  S
O183       Ni191   1.933       .  S
O183        C193   1.284       .  A
O184       Ni191   1.936       .  S
O184        C194   1.285       .  A
O185       Ni191   1.926       .  S
O185        C195   1.282       .  A
O186       Ni191   1.919       .  S
O186        C196   1.280       .  A
O187       Ni192   1.925       .  S
O187        C196   1.283       .  A
O188       Ni192   1.934       .  S
O188        C195   1.284       .  A
O189       Ni192   1.929       .  S
O189        C194   1.283       .  A
O190       Ni192   1.923       .  S
O190        C193   1.282       .  A
Ni191      Ni192   2.382       .  S
C193       C2262   1.498       .  S
C194       C2402   1.500       .  S
C195       C2242   1.496       .  S
C196       C2273   1.493       .  S
O197       Ni205   1.920       .  S
O197        C207   1.281       .  A
O198       Ni205   1.926       .  S
O198        C208   1.282       .  A
O199       Ni205   1.931       .  S
O199        C209   1.284       .  A
O200       Ni205   1.925       .  S
O200        C210   1.283       .  A
O201       Ni206   1.925       .  S
O201        C210   1.282       .  A
O202       Ni206   1.931       .  S
O202        C209   1.284       .  A
O203       Ni206   1.929       .  S
O203        C208   1.283       .  A
O204       Ni206   1.917       .  S
O204        C207   1.281       .  A
Ni205      Ni206   2.385       .  S
C207       C2282   1.476       .  S
C208       C2213   1.486       .  S
C209       C2362   1.501       .  S
C210       C2322   1.499       .  S
O211       Ni219   1.927       .  S
O211        C221   1.284       .  A
O212       Ni219   1.933       .  S
O212        C222   1.283       .  A
O213       Ni219   1.931       .  S
O213        C223   1.282       .  A
O214       Ni219   1.927       .  S
O214        C224   1.283       .  A
O215       Ni220   1.925       .  S
O215        C224   1.282       .  A
O216       Ni220   1.932       .  S
O216        C223   1.283       .  A
O217       Ni220   1.918       .  S
O217        C222   1.280       .  A
O218       Ni220   1.918       .  S
O218        C221   1.280       .  A
Ni219      Ni220   2.379       .  S
C221       C2253   1.491       .  S
C222       C2742   1.519       .  S
C223       C2193   1.490       .  S
C224       C2342   1.488       .  S
N225        C229   1.376       .  A
N225        C226   1.377       .  A
N225       C2153   1.453       .  S
C226        C227   1.382       .  A
C226       C2182   1.510       .  S
C227        C228   1.363       .  A
C227        H230   1.082       .  S
C228        C229   1.381       .  A
C228        H231   1.082       .  S
C229       C2133   1.510       .  S
N232        C236   1.370       .  A
N232        C233   1.374       .  A
N232       C2162   1.454       .  S
C233        C234   1.384       .  A
C233       C2113   1.502       .  S
C234        C235   1.365       .  A
C234        H237   1.079       .  S
C235        C236   1.380       .  A
C235        H238   1.079       .  S
C236       C2093   1.496       .  S
N239        C243   1.378       .  A
N239        C240   1.368       .  A
N239       C2073   1.450       .  S
C240        C241   1.371       .  A
C240       C2222   1.488       .  S
C241        C242   1.361       .  A
C241        H244   1.084       .  S
C242        C243   1.392       .  A
C242        H245   1.080       .  S
C243       C2102   1.527       .  S
N246        C250   1.375       .  A
N246        C247   1.377       .  A
N246       C2082   1.453       .  S
C247        C248   1.383       .  A
C247       C2302   1.511       .  S
C248        C249   1.367       .  A
C248        H251   1.082       .  S
C249        C250   1.381       .  A
C249        H252   1.082       .  S
C250       C2142   1.511       .  S
N253        C257   1.369       .  A
N253        C254   1.372       .  A
N253       C2053   1.454       .  S
C254        C255   1.383       .  A
C254       C2233   1.498       .  S
C255        C256   1.372       .  A
C255        H258   1.079       .  S
C256        C257   1.380       .  A
C256        H259   1.081       .  S
C257       C2033   1.499       .  S
N260        C264   1.367       .  A
N260        C261   1.369       .  A
N260       C2062   1.448       .  S
C261        C262   1.385       .  A
C261       C2202   1.504       .  S
C262        C263   1.377       .  A
C262        H265   1.078       .  S
C263        C264   1.382       .  A
C263        H266   1.078       .  S
C264       C2022   1.501       .  S
N267        C271   1.371       .  A
N267        C268   1.375       .  A
N267       C1973   1.459       .  S
C268        C269   1.382       .  A
C268       C2002   1.500       .  S
C269        C270   1.367       .  A
C269        H272   1.080       .  S
C270        C271   1.381       .  A
C270        H273   1.080       .  S
C271       C2042   1.494       .  S
N274        C278   1.369       .  A
N274        C275   1.373       .  A
N274       C1982   1.455       .  S
C275        C276   1.381       .  A
C275       C1962   1.500       .  S
C276        C277   1.372       .  A
C276        H279   1.079       .  S
C277        C278   1.383       .  A
C277        H280   1.078       .  S
C278       C2013   1.499       .  S
N281        C285   1.375       .  A
N281        C282   1.375       .  A
N281       C1913   1.456       .  S
C282        C283   1.382       .  A
C282       C1942   1.507       .  S
C283        C284   1.368       .  A
C283        H286   1.079       .  S
C284        C285   1.382       .  A
C284        H287   1.082       .  S
C285       C1893   1.507       .  S
N288        C292   1.370       .  A
N288        C289   1.374       .  A
N288       C1922   1.457       .  S
C289        C290   1.381       .  A
C289       C1873   1.502       .  S
C290        C291   1.367       .  A
C290        H293   1.081       .  S
C291        C292   1.382       .  A
C291        H294   1.081       .  S
C292       C1853   1.496       .  S
N295        C299   1.371       .  A
N295        C296   1.370       .  A
N295       C1813   1.449       .  S
C296        C297   1.385       .  A
C296       C1833   1.503       .  S
C297        C298   1.372       .  A
C297        H300   1.078       .  S
C298        C299   1.381       .  A
C298        H301   1.078       .  S
C299       C1902   1.504       .  S
N302        C306   1.369       .  A
N302        C303   1.372       .  A
N302       C1822   1.452       .  S
C303        C304   1.383       .  A
C303       C1802   1.501       .  S
C304        C305   1.373       .  A
C304        H307   1.081       .  S
C305        C306   1.381       .  A
C305        H308   1.082       .  S
C306       C1862   1.502       .  S
O309       Ni317   1.923       .  S
O309        C319   1.281       .  A
O310       Ni317   1.925       .  S
O310        C320   1.282       .  A
O311       Ni317   1.928       .  S
O311        C321   1.283       .  A
O312       Ni317   1.910       .  S
O312        C322   1.280       .  A
O313       Ni318   1.920       .  S
O313        C322   1.281       .  A
O314       Ni318   1.929       .  S
O314        C321   1.282       .  A
O315       Ni318   1.940       .  S
O315        C320   1.285       .  A
O316       Ni318   1.922       .  S
O316        C319   1.283       .  A
Ni317      Ni318   2.381       .  S
C319       C1762   1.497       .  S
C320       C1793   1.496       .  S
C321       C1993   1.487       .  S
C322       C1782   1.494       .  S
O323       Ni331   1.926       .  S
O323        C333   1.283       .  A
O324       Ni331   1.928       .  S
O324        C334   1.283       .  A
O325       Ni331   1.925       .  S
O325        C335   1.282       .  A
O326       Ni331   1.912       .  S
O326        C336   1.279       .  A
O327       Ni332   1.924       .  S
O327        C336   1.283       .  A
O328       Ni332   1.928       .  S
O328        C335   1.284       .  A
O329       Ni332   1.926       .  S
O329        C334   1.282       .  A
O330       Ni332   1.914       .  S
O330        C333   1.278       .  A
Ni331      Ni332   2.384       .  S
C333       C1773   1.475       .  S
C334       C2173   1.490       .  S
C335       C1842   1.498       .  S
C336       C1733   1.496       .  S
O337       Ni345   1.918       .  S
O337        C347   1.281       .  A
O338       Ni345   1.920       .  S
O338        C348   1.281       .  A
O339       Ni345   1.929       .  S
O339        C349   1.283       .  A
O340       Ni345   1.921       .  S
O340        C350   1.282       .  A
O341       Ni346   1.919       .  S
O341        C350   1.281       .  A
O342       Ni346   1.926       .  S
O342        C349   1.281       .  A
O343       Ni346   1.930       .  S
O343        C348   1.284       .  A
O344       Ni346   1.927       .  S
O344        C347   1.284       .  A
Ni345      Ni346   2.386       .  S
C347       C1753   1.493       .  S
C348       C1693   1.493       .  S
C349       C1953   1.485       .  S
C350       C1713   1.480       .  S
O351       Ni359   1.903       .  S
O351        C361   1.278       .  A
O352       Ni359   1.911       .  S
O352        C362   1.279       .  A
O353       Ni359   1.930       .  S
O353        C363   1.284       .  A
O354       Ni359   1.920       .  S
O354        C364   1.282       .  A
O355       Ni360   1.916       .  S
O355        C364   1.280       .  A
O356       Ni360   1.922       .  S
O356        C363   1.281       .  A
O357       Ni360   1.935       .  S
O357        C362   1.285       .  A
O358       Ni360   1.927       .  S
O358        C361   1.284       .  A
Ni359      Ni360   2.386       .  S
C361       C1742   1.487       .  S
C362       C1673   1.486       .  S
C363       C2122   1.487       .  S
C364       C1722   1.482       .  S
N365        C369   1.371       .  A
N365        C366   1.370       .  A
N365       C1633   1.450       .  S
C366        C367   1.384       .  A
C366       C1653   1.501       .  S
C367        C368   1.372       .  A
C367        H370   1.080       .  S
C368        C369   1.381       .  A
C368        H371   1.079       .  S
C369       C1613   1.503       .  S
N372        C376   1.369       .  A
N372        C373   1.366       .  A
N372       C1642   1.451       .  S
C373        C374   1.384       .  A
C373       C1593   1.492       .  S
C374        C375   1.371       .  A
C374        H377   1.077       .  S
C375        C376   1.381       .  A
C375        H378   1.080       .  S
C376       C1573   1.499       .  S
N379        C383   1.370       .  A
N379        C380   1.375       .  A
N379       C1553   1.460       .  S
C380        C381   1.383       .  A
C380       C1682   1.500       .  S
C381        C382   1.365       .  A
C381        H384   1.077       .  S
C382        C383   1.380       .  A
C382        H385   1.077       .  S
C383       C1582   1.490       .  S
N386        C390   1.372       .  A
N386        C387   1.374       .  A
N386       C1562   1.457       .  S
C387        C388   1.383       .  A
C387       C1702   1.505       .  S
C388        C389   1.368       .  A
C388        H391   1.080       .  S
C389        C390   1.381       .  A
C389        H392   1.080       .  S
C390       C1622   1.498       .  S
O393       Ni401   1.918       .  S
O393        C403   1.281       .  A
O394       Ni401   1.925       .  S
O394        C404   1.283       .  A
O395       Ni401   1.930       .  S
O395        C405   1.283       .  A
O396       Ni401   1.925       .  S
O396        C406   1.283       .  A
O397       Ni402   1.918       .  S
O397        C406   1.281       .  A
O398       Ni402   1.923       .  S
O398        C405   1.282       .  A
O399       Ni402   1.920       .  S
O399        C404   1.282       .  A
O400       Ni402   1.921       .  S
O400        C403   1.282       .  A
Ni401      Ni402   2.384       .  S
C403       C1533   1.491       .  S
C404       C1493   1.491       .  S
C405       C1662   1.487       .  S
C406       C1513   1.489       .  S
O407       Ni415   1.914       .  S
O407        C417   1.281       .  A
O408       Ni415   1.922       .  S
O408        C418   1.282       .  A
O409       Ni415   1.926       .  S
O409        C419   1.282       .  A
O410       Ni415   1.918       .  S
O410        C420   1.281       .  A
O411       Ni416   1.919       .  S
O411        C420   1.281       .  A
O412       Ni416   1.926       .  S
O412        C419   1.283       .  A
O413       Ni416   1.925       .  S
O413        C418   1.283       .  A
O414       Ni416   1.922       .  S
O414        C417   1.282       .  A
Ni415      Ni416   2.387       .  S
C417       C1453   1.481       .  S
C418       C1882   1.490       .  S
C419       C1433   1.493       .  S
C420       C1482   1.477       .  S
O421       Ni429   1.932       .  S
O421        C431   1.284       .  A
O422       Ni429   1.930       .  S
O422        C432   1.283       .  A
O423       Ni429   1.918       .  S
O423        C433   1.281       .  A
O424       Ni429   1.910       .  S
O424        C434   1.278       .  A
O425       Ni430   1.927       .  S
O425        C434   1.284       .  A
O426       Ni430   1.932       .  S
O426        C433   1.285       .  A
O427       Ni430   1.937       .  S
O427        C432   1.284       .  A
O428       Ni430   1.923       .  S
O428        C431   1.280       .  A
Ni429      Ni430   2.382       .  S
C431       C1522   1.484       .  S
C432       C1933   1.499       .  S
C433       C1413   1.500       .  S
C434       C1473   1.494       .  S
O435       Ni443   1.926       .  S
O435        C445   1.283       .  A
O436       Ni443   1.928       .  S
O436        C446   1.283       .  A
O437       Ni443   1.930       .  S
O437        C447   1.283       .  A
O438       Ni443   1.925       .  S
O438        C448   1.282       .  A
O439       Ni444   1.916       .  S
O439        C448   1.281       .  A
O440       Ni444   1.926       .  S
O440        C447   1.282       .  A
O441       Ni444   1.929       .  S
O441        C446   1.283       .  A
O442       Ni444   1.920       .  S
O442        C445   1.281       .  A
Ni443      Ni444   2.382       .  S
C445       C1542   1.492       .  S
C446       C1393   1.494       .  S
C447       C1602   1.492       .  S
C448       C1462   1.498       .  S
O449       Ni457   1.908       .  S
O449        C459   1.279       .  A
O450       Ni457   1.919       .  S
O450        C460   1.281       .  A
O451       Ni457   1.922       .  S
O451        C461   1.283       .  A
O452       Ni457   1.918       .  S
O452        C462   1.281       .  A
O453       Ni458   1.904       .  S
O453        C462   1.277       .  A
O454       Ni458   1.913       .  S
O454        C461   1.280       .  A
O455       Ni458   1.917       .  S
O455        C460   1.280       .  A
O456       Ni458   1.908       .  S
O456        C459   1.279       .  A
Ni457      Ni458   2.382       .  S
C459       C1382   1.463       .  S
C460       C2922   1.473       .  S
C461       C1333   1.496       .  S
C462       C1353   1.493       .  S
O463       Ni471   1.920       .  S
O463        C473   1.281       .  A
O464       Ni471   1.924       .  S
O464        C474   1.282       .  A
O465       Ni471   1.921       .  S
O465        C475   1.282       .  A
O466       Ni471   1.914       .  S
O466        C476   1.280       .  A
O467       Ni472   1.921       .  S
O467        C476   1.282       .  A
O468       Ni472   1.922       .  S
O468        C475   1.282       .  A
O469       Ni472   1.929       .  S
O469        C474   1.283       .  A
O470       Ni472   1.923       .  S
O470        C473   1.282       .  A
Ni471      Ni472   2.385       .  S
C473       C1302   1.494       .  S
C474       C1273   1.491       .  S
C475       C2902   1.485       .  S
C476       C1313   1.480       .  S
O477       Ni485   1.922       .  S
O477        C487   1.282       .  A
O478       Ni485   1.934       .  S
O478        C488   1.284       .  A
O479       Ni485   1.922       .  S
O479        C489   1.282       .  A
O480       Ni485   1.910       .  S
O480        C490   1.278       .  A
O481       Ni486   1.910       .  S
O481        C490   1.280       .  A
O482       Ni486   1.913       .  S
O482        C489   1.280       .  A
O483       Ni486   1.924       .  S
O483        C488   1.280       .  A
O484       Ni486   1.916       .  S
O484        C487   1.281       .  A
Ni485      Ni486   2.382       .  S
C487       C1322   1.484       .  S
C488       C2962   1.520       .  S
C489       C1262   1.484       .  S
C490       C1362   1.466       .  S
O491       Ni499   1.912       .  S
O491        C501   1.280       .  A
O492       Ni499   1.930       .  S
O492        C502   1.284       .  A
O493       Ni499   1.928       .  S
O493        C503   1.283       .  A
O494       Ni499   1.921       .  S
O494        C504   1.281       .  A
O495       Ni500   1.927       .  S
O495        C504   1.283       .  A
O496       Ni500   1.935       .  S
O496        C503   1.285       .  A
O497       Ni500   1.912       .  S
O497        C502   1.279       .  A
O498       Ni500   1.904       .  S
O498        C501   1.278       .  A
Ni499      Ni500   2.384       .  S
C501       C1373   1.466       .  S
C502       C2842   1.489       .  S
C503       C1233   1.512       .  S
C504       C1293   1.486       .  S
N505        C509   1.370       .  A
N505        C506   1.370       .  A
N505       C1193   1.457       .  S
C506        C507   1.382       .  A
C506       C1213   1.493       .  S
C507        C508   1.366       .  A
C507        H510   1.078       .  S
C508        C509   1.382       .  A
C508        H511   1.077       .  S
C509       C1173   1.492       .  S
N512        C516   1.373       .  A
N512        C513   1.373       .  A
N512       C1202   1.458       .  S
C513        C514   1.382       .  A
C513       C1162   1.497       .  S
C514        C515   1.362       .  A
C514        H517   1.084       .  S
C515        C516   1.381       .  A
C515        H518   1.080       .  S
C516       C1133   1.496       .  S
N519        C523   1.369       .  A
N519        C520   1.369       .  A
N519       C1113   1.452       .  S
C520        C521   1.385       .  A
C520       C1402   1.498       .  S
C521        C522   1.371       .  A
C521        H524   1.078       .  S
C522        C523   1.380       .  A
C522        H525   1.080       .  S
C523       C1142   1.495       .  S
N526        C530   1.368       .  A
N526        C527   1.369       .  A
N526       C1122   1.449       .  S
C527        C528   1.386       .  A
C527       C1442   1.501       .  S
C528        C529   1.373       .  A
C528        H531   1.080       .  S
C529        C530   1.380       .  A
C529        H532   1.078       .  S
C530       C1182   1.498       .  S
N533        C537   1.373       .  A
N533        C534   1.373       .  A
N533       C1093   1.460       .  S
C534        C535   1.380       .  A
C534       C1502   1.493       .  S
C535        C536   1.366       .  A
C535        H538   1.081       .  S
C536        C537   1.382       .  A
C536        H539   1.079       .  S
C537       C1073   1.498       .  S
N540        C544   1.373       .  A
N540        C541   1.374       .  A
N540       C1102   1.460       .  S
C541        C542   1.382       .  A
C541       C1422   1.498       .  S
C542        C543   1.363       .  A
C542        H545   1.080       .  S
C543        C544   1.380       .  A
C543        H546   1.081       .  S
C544       C1053   1.495       .  S
N547        C551   1.372       .  A
N547        C548   1.369       .  A
N547       C1022   1.452       .  S
C548        C549   1.381       .  A
C548       C1042   1.492       .  S
C549        C550   1.368       .  A
C549        H552   1.078       .  S
C550        C551   1.382       .  A
C550        H553   1.080       .  S
C551       C1082   1.502       .  S
N554        C558   1.372       .  A
N554        C555   1.375       .  A
N554       C1013   1.470       .  S
C555        C556   1.379       .  A
C555        C993   1.481       .  S
C556        C557   1.363       .  A
C556        H559   1.078       .  S
C557        C558   1.378       .  A
C557        H560   1.078       .  S
C558       C1062   1.479       .  S
N561        C565   1.374       .  A
N561        C562   1.376       .  A
N561        C973   1.456       .  S
C562        C563   1.383       .  A
C562       C1242   1.506       .  S
C563        C564   1.368       .  A
C563        H566   1.084       .  S
C564        C565   1.381       .  A
C564        H567   1.079       .  S
C565        C953   1.506       .  S
N568        C572   1.373       .  A
N568        C569   1.374       .  A
N568        C982   1.457       .  S
C569        C570   1.383       .  A
C569       C1342   1.498       .  S
C570        C571   1.364       .  A
C570        H573   1.079       .  S
C571        C572   1.381       .  A
C571        H574   1.079       .  S
C572        C933   1.500       .  S
N575        C579   1.373       .  A
N575        C576   1.372       .  A
N575        C893   1.450       .  S
C576        C577   1.382       .  A
C576        C913   1.504       .  S
C577        C578   1.370       .  A
C577        H580   1.078       .  S
C578        C579   1.382       .  A
C578        H581   1.079       .  S
C579        C962   1.507       .  S
N582        C586   1.371       .  A
N582        C583   1.371       .  A
N582        C902   1.454       .  S
C583        C584   1.381       .  A
C583        C882   1.497       .  S
C584        C585   1.370       .  A
C584        H587   1.079       .  S
C585        C586   1.382       .  A
C585        H588   1.079       .  S
C586        C942   1.501       .  S
O589       Ni597   1.905       .  S
O589        C599   1.278       .  A
O590       Ni597   1.913       .  S
O590        C600   1.279       .  A
O591       Ni597   1.933       .  S
O591        C601   1.285       .  A
O592       Ni597   1.927       .  S
O592        C602   1.283       .  A
O593       Ni598   1.918       .  S
O593        C602   1.279       .  A
O594       Ni598   1.920       .  S
O594        C601   1.281       .  A
O595       Ni598   1.934       .  S
O595        C600   1.285       .  A
O596       Ni598   1.923       .  S
O596        C599   1.282       .  A
Ni597      Ni598   2.380       .  S
C599        C853   1.471       .  S
C600       C1033   1.495       .  S
C601        C873   1.497       .  S
C602        C833   1.508       .  S
O603       Ni611   1.904       .  S
O603        C613   1.278       .  A
O604       Ni611   1.910       .  S
O604        C614   1.279       .  A
O605       Ni611   1.926       .  S
O605        C615   1.283       .  A
O606       Ni611   1.918       .  S
O606        C616   1.282       .  A
O607       Ni612   1.925       .  S
O607        C616   1.282       .  A
O608       Ni612   1.930       .  S
O608        C615   1.283       .  A
O609       Ni612   1.926       .  S
O609        C614   1.283       .  A
O610       Ni612   1.930       .  S
O610        C613   1.283       .  A
Ni611      Ni612   2.385       .  S
C613        C862   1.476       .  S
C614       C1222   1.485       .  S
C615        C922   1.500       .  S
C616        C813   1.491       .  S
O617       Ni625   1.926       .  S
O617        C627   1.283       .  A
O618       Ni625   1.927       .  S
O618        C628   1.284       .  A
O619       Ni625   1.924       .  S
O619        C629   1.282       .  A
O620       Ni625   1.912       .  S
O620        C630   1.278       .  A
O621       Ni626   1.933       .  S
O621        C630   1.284       .  A
O622       Ni626   1.927       .  S
O622        C629   1.282       .  A
O623       Ni626   1.912       .  S
O623        C628   1.279       .  A
O624       Ni626   1.904       .  S
O624        C627   1.277       .  A
Ni625      Ni626   2.385       .  S
C627        C793   1.492       .  S
C628       C1153   1.491       .  S
C629        C782   1.483       .  S
C630        C822   1.480       .  S
O631       Ni639   1.916       .  S
O631        C641   1.280       .  A
O632       Ni639   1.921       .  S
O632        C642   1.282       .  A
O633       Ni639   1.929       .  S
O633        C643   1.284       .  A
O634       Ni639   1.926       .  S
O634        C644   1.283       .  A
O635       Ni640   1.916       .  S
O635        C644   1.281       .  A
O636       Ni640   1.921       .  S
O636        C643   1.281       .  A
O637       Ni640   1.915       .  S
O637        C642   1.281       .  A
O638       Ni640   1.911       .  S
O638        C641   1.280       .  A
Ni639      Ni640   2.389       .  S
C641        C802   1.474       .  S
C642       C1002   1.483       .  S
C643        C753   1.486       .  S
C644        C842   1.481       .  S
N645        C649   1.371       .  A
N645        C646   1.374       .  A
N645        C733   1.456       .  S
C646        C647   1.383       .  A
C646       C1282   1.505       .  S
C647        C648   1.368       .  A
C647        H650   1.080       .  S
C648        C649   1.381       .  A
C648        H651   1.080       .  S
C649        C713   1.499       .  S
N652        C656   1.370       .  A
N652        C653   1.372       .  A
N652        C742   1.458       .  S
C653        C654   1.382       .  A
C653       C1253   1.496       .  S
C654        C655   1.366       .  A
C654        H657   1.080       .  S
C655        C656   1.381       .  A
C655        H658   1.080       .  S
C656        C702   1.493       .  S
N659        C663   1.372       .  A
N659        C660   1.371       .  A
N659        C682   1.454       .  S
C660        C661   1.381       .  A
C660        C762   1.496       .  S
C661        C662   1.369       .  A
C661        H664   1.081       .  S
C662        C663   1.381       .  A
C662        H665   1.082       .  S
C663        C722   1.501       .  S
N666        C670   1.368       .  A
N666        C667   1.369       .  A
N666        C673   1.454       .  S
C667        C668   1.382       .  A
C667        C773   1.492       .  S
C668        C669   1.371       .  A
C668        H671   1.079       .  S
C669        C670   1.381       .  A
C669        H672   1.079       .  S
C670        C693   1.495       .  S
C673        C674   1.416       .  A
C673        C678   1.421       .  A
C674        C675   1.403       .  A
C674       Br686   1.920       .  S
C675        C676   1.404       .  A
C675       Br690   1.936       .  S
C676        C677   1.404       .  A
C676        C679   1.483       .  S
C677        C678   1.412       .  A
C677       Br685   1.931       .  S
C678       Br689   1.919       .  S
C679        C680   1.404       .  A
C679        C684   1.403       .  A
C680        C681   1.408       .  A
C680       Br691   1.932       .  S
C681        C682   1.418       .  A
C681       Br687   1.920       .  S
C682        C683   1.420       .  A
C683        C684   1.408       .  A
C683       Br692   1.919       .  S
C684       Br688   1.933       .  S
C693        C694   1.420       .  A
C693        C698   1.413       .  A
C694        C695   1.409       .  A
C694       Br706   1.935       .  S
C695        C696   1.407       .  A
C695       Br710   1.931       .  S
C696        C697   1.408       .  A
C696        C699   1.488       .  S
C697        C698   1.409       .  A
C697       Br705   1.932       .  S
C698       Br709   1.922       .  S
C699        C700   1.408       .  A
C699        C704   1.410       .  A
C700        C701   1.404       .  A
C700       Br711   1.935       .  S
C701        C702   1.419       .  A
C701       Br707   1.938       .  S
C702        C703   1.413       .  A
C703        C704   1.413       .  A
C703       Br712   1.925       .  S
C704       Br708   1.927       .  S
C713        C714   1.419       .  A
C713        C718   1.414       .  A
C714        C715   1.406       .  A
C714       Br726   1.937       .  S
C715        C716   1.409       .  A
C715       Br730   1.934       .  S
C716        C717   1.411       .  A
C716        C719   1.496       .  S
C717        C718   1.416       .  A
C717       Br725   1.927       .  S
C718       Br729   1.924       .  S
C719        C720   1.408       .  A
C719        C724   1.410       .  A
C720        C721   1.410       .  A
C720       Br731   1.932       .  S
C721        C722   1.421       .  A
C721       Br727   1.935       .  S
C722        C723   1.416       .  A
C723        C724   1.415       .  A
C723       Br732   1.922       .  S
C724       Br728   1.931       .  S
C733        C734   1.419       .  A
C733        C738   1.418       .  A
C734        C735   1.411       .  A
C734       Br746   1.927       .  S
C735        C736   1.412       .  A
C735       Br750   1.933       .  S
C736        C737   1.408       .  A
C736        C739   1.495       .  S
C737        C738   1.408       .  A
C737       Br745   1.934       .  S
C738       Br749   1.922       .  S
C739        C740   1.408       .  A
C739        C744   1.410       .  A
C740        C741   1.409       .  A
C740       Br751   1.932       .  S
C741        C742   1.420       .  A
C741       Br747   1.919       .  S
C742        C743   1.417       .  A
C743        C744   1.407       .  A
C743       Br752   1.925       .  S
C744       Br748   1.931       .  S
C753        C754   1.409       .  A
C753        C758   1.414       .  A
C754        C755   1.412       .  A
C754       Br766   1.928       .  S
C755        C756   1.414       .  A
C755       Br770   1.929       .  S
C756        C757   1.410       .  A
C756        C759   1.496       .  S
C757        C758   1.409       .  A
C757       Br765   1.932       .  S
C758       Br769   1.931       .  S
C759        C760   1.409       .  A
C759        C764   1.412       .  A
C760        C761   1.408       .  A
C760       Br771   1.933       .  S
C761        C762   1.419       .  A
C761       Br767   1.937       .  S
C762        C763   1.412       .  A
C763        C764   1.414       .  A
C763       Br772   1.922       .  S
C764       Br768   1.930       .  S
C773        C774   1.412       .  A
C773        C778   1.418       .  A
C774        C775   1.411       .  A
C774       Br786   1.921       .  S
C775        C776   1.410       .  A
C775       Br790   1.931       .  S
C776        C777   1.408       .  A
C776        C779   1.491       .  S
C777        C778   1.408       .  A
C777       Br785   1.932       .  S
C778       Br789   1.936       .  S
C779        C780   1.409       .  A
C779        C784   1.412       .  A
C780        C781   1.408       .  A
C780       Br791   1.932       .  S
C781        C782   1.413       .  A
C781       Br787   1.925       .  S
C782        C783   1.408       .  A
C783        C784   1.410       .  A
C783       Br792   1.924       .  S
C784       Br788   1.930       .  S
C793        C794   1.424       .  A
C793        C798   1.422       .  A
C794        C795   1.406       .  A
C794       Br806   1.934       .  S
C795        C796   1.403       .  A
C795       Br810   1.935       .  S
C796        C797   1.404       .  A
C796        C799   1.478       .  S
C797        C798   1.407       .  A
C797       Br805   1.932       .  S
C798       Br809   1.935       .  S
C799        C800   1.408       .  A
C799        C804   1.406       .  A
C800        C801   1.407       .  A
C800       Br811   1.930       .  S
C801        C802   1.414       .  A
C801       Br807   1.932       .  S
C802        C803   1.412       .  A
C803        C804   1.403       .  A
C803       Br812   1.933       .  S
C804       Br808   1.932       .  S
C813        C814   1.416       .  A
C813        C818   1.417       .  A
C814        C815   1.408       .  A
C814       Br826   1.925       .  S
C815        C816   1.407       .  A
C815       Br830   1.932       .  S
C816        C817   1.406       .  A
C816        C819   1.484       .  S
C817        C818   1.408       .  A
C817       Br825   1.930       .  S
C818       Br829   1.933       .  S
C819        C820   1.409       .  A
C819        C824   1.407       .  A
C820        C821   1.408       .  A
C820       Br831   1.930       .  S
C821        C822   1.409       .  A
C821       Br827   1.922       .  S
C822        C823   1.414       .  A
C823        C824   1.407       .  A
C823       Br832   1.928       .  S
C824       Br828   1.930       .  S
C833        C834   1.426       .  A
C833        C838   1.429       .  A
C834        C835   1.411       .  A
C834       Br846   1.935       .  S
C835        C836   1.404       .  A
C835       Br850   1.933       .  S
C836        C837   1.404       .  A
C836        C839   1.488       .  S
C837        C838   1.411       .  A
C837       Br845   1.935       .  S
C838       Br849   1.934       .  S
C839        C840   1.408       .  A
C839        C844   1.410       .  A
C840        C841   1.408       .  A
C840       Br851   1.930       .  S
C841        C842   1.413       .  A
C841       Br847   1.931       .  S
C842        C843   1.412       .  A
C843        C844   1.410       .  A
C843       Br852   1.930       .  S
C844       Br848   1.930       .  S
C853        C854   1.410       .  A
C853        C858   1.412       .  A
C854        C855   1.407       .  A
C854       Br866   1.930       .  S
C855        C856   1.409       .  A
C855       Br870   1.929       .  S
C856        C857   1.406       .  A
C856        C859   1.478       .  S
C857        C858   1.403       .  A
C857       Br865   1.932       .  S
C858       Br869   1.931       .  S
C859        C860   1.406       .  A
C859        C864   1.407       .  A
C860        C861   1.404       .  A
C860       Br871   1.930       .  S
C861        C862   1.414       .  A
C861       Br867   1.931       .  S
C862        C863   1.410       .  A
C863        C864   1.405       .  A
C863       Br872   1.918       .  S
C864       Br868   1.932       .  S
C873        C874   1.414       .  A
C873        C878   1.422       .  A
C874        C875   1.412       .  A
C874       Br886   1.926       .  S
C875        C876   1.410       .  A
C875       Br890   1.931       .  S
C876        C877   1.406       .  A
C876        C879   1.494       .  S
C877        C878   1.412       .  A
C877       Br885   1.931       .  S
C878       Br889   1.933       .  S
C879        C880   1.410       .  A
C879        C884   1.407       .  A
C880        C881   1.413       .  A
C880       Br891   1.929       .  S
C881        C882   1.413       .  A
C881       Br887   1.924       .  S
C882        C883   1.420       .  A
C883        C884   1.409       .  A
C883       Br892   1.936       .  S
C884       Br888   1.931       .  S
C893        C894   1.415       .  A
C893        C898   1.416       .  A
C894        C895   1.403       .  A
C894       Br906   1.921       .  S
C895        C896   1.408       .  A
C895       Br910   1.933       .  S
C896        C897   1.408       .  A
C896        C899   1.484       .  S
C897        C898   1.404       .  A
C897       Br905   1.934       .  S
C898       Br909   1.922       .  S
C899        C900   1.407       .  A
C899        C904   1.407       .  A
C900        C901   1.407       .  A
C900       Br911   1.933       .  S
C901        C902   1.420       .  A
C901       Br907   1.917       .  S
C902        C903   1.414       .  A
C903        C904   1.399       .  A
C903       Br912   1.918       .  S
C904       Br908   1.933       .  S
C913        C914   1.416       .  A
C913        C918   1.422       .  A
C914        C915   1.417       .  A
C914       Br926   1.924       .  S
C915        C916   1.411       .  A
C915       Br930   1.929       .  S
C916        C917   1.406       .  A
C916        C919   1.497       .  S
C917        C918   1.409       .  A
C917       Br925   1.932       .  S
C918       Br929   1.937       .  S
C919        C920   1.409       .  A
C919        C924   1.408       .  A
C920        C921   1.411       .  A
C920       Br931   1.931       .  S
C921        C922   1.416       .  A
C921       Br927   1.925       .  S
C922        C923   1.421       .  A
C923        C924   1.415       .  A
C923       Br932   1.933       .  S
C924       Br928   1.930       .  S
C933        C934   1.416       .  A
C933        C938   1.421       .  A
C934        C935   1.416       .  A
C934       Br946   1.925       .  S
C935        C936   1.410   1_655  A
C935       Br950   1.927   1_655  S
C936        C937   1.407   1_455  A
C936        C939   1.494       .  S
C937        C938   1.405       .  A
C937       Br945   1.935   1_655  S
C938       Br949   1.939       .  S
C939        C940   1.407       .  A
C939        C944   1.409       .  A
C940        C941   1.408       .  A
C940       Br951   1.932       .  S
C941        C942   1.421       .  A
C941       Br947   1.937       .  S
C942        C943   1.416       .  A
C943        C944   1.415       .  A
C943       Br952   1.924       .  S
C944       Br948   1.928       .  S
C953        C954   1.422       .  A
C953        C958   1.417       .  A
C954        C955   1.410       .  A
C954       Br966   1.936       .  S
C955        C956   1.408   1_655  A
C955       Br970   1.934   1_655  S
C956        C957   1.410   1_455  A
C956        C959   1.499       .  S
C957        C958   1.417       .  A
C957       Br965   1.928   1_655  S
C958       Br969   1.923       .  S
C959        C960   1.410       .  A
C959        C964   1.407       .  A
C960        C961   1.418       .  A
C960       Br971   1.929       .  S
C961        C962   1.418       .  A
C961       Br967   1.923       .  S
C962        C963   1.422       .  A
C963        C964   1.410       .  A
C963       Br972   1.937       .  S
C964       Br968   1.933       .  S
C973        C974   1.417       .  A
C973        C978   1.416       .  A
C974        C975   1.411       .  A
C974       Br986   1.922       .  S
C975        C976   1.411       .  A
C975       Br990   1.933       .  S
C976        C977   1.408       .  A
C976        C979   1.495       .  S
C977        C978   1.406       .  A
C977       Br985   1.934       .  S
C978       Br989   1.921       .  S
C979        C980   1.408       .  A
C979        C984   1.411       .  A
C980        C981   1.405       .  A
C980       Br991   1.932       .  S
C981        C982   1.416       .  A
C981       Br987   1.921       .  S
C982        C983   1.419       .  A
C983        C984   1.410       .  A
C983       Br992   1.922       .  S
C984       Br988   1.932       .  S
C993        C994   1.412       .  A
C993        C998   1.410       .  A
C994        C995   1.406       .  A
C994      Br1006   1.929       .  S
C995        C996   1.408       .  A
C995      Br1010   1.930       .  S
C996        C997   1.410       .  A
C996        C999   1.487       .  S
C997        C998   1.410       .  A
C997      Br1005   1.928       .  S
C998      Br1009   1.925       .  S
C999       C1000   1.407       .  A
C999       C1004   1.410       .  A
C1000      C1001   1.409       .  A
C1000     Br1011   1.931       .  S
C1001      C1002   1.417       .  A
C1001     Br1007   1.932       .  S
C1002      C1003   1.412       .  A
C1003      C1004   1.409       .  A
C1003     Br1012   1.931       .  S
C1004     Br1008   1.929       .  S
C1013      C1014   1.411       .  A
C1013      C1018   1.411       .  A
C1014      C1015   1.399       .  A
C1014     Br1026   1.921       .  S
C1015      C1016   1.406       .  A
C1015     Br1030   1.930       .  S
C1016      C1017   1.411       .  A
C1016      C1019   1.481       .  S
C1017      C1018   1.410       .  A
C1017     Br1025   1.925       .  S
C1018     Br1029   1.922       .  S
C1019      C1020   1.404       .  A
C1019      C1024   1.407       .  A
C1020      C1021   1.406       .  A
C1020     Br1031   1.931       .  S
C1021      C1022   1.415       .  A
C1021     Br1027   1.921       .  S
C1022      C1023   1.419       .  A
C1023      C1024   1.409       .  A
C1023     Br1032   1.921       .  S
C1024     Br1028   1.934       .  S
C1033      C1034   1.417       .  A
C1033      C1038   1.419       .  A
C1034      C1035   1.411       .  A
C1034     Br1046   1.929       .  S
C1035      C1036   1.408       .  A
C1035     Br1050   1.931       .  S
C1036      C1037   1.405       .  A
C1036      C1039   1.489       .  S
C1037      C1038   1.409       .  A
C1037     Br1045   1.933       .  S
C1038     Br1049   1.924       .  S
C1039      C1040   1.405       .  A
C1039      C1044   1.410       .  A
C1040      C1041   1.405       .  A
C1040     Br1051   1.932       .  S
C1041      C1042   1.419       .  A
C1041     Br1047   1.937       .  S
C1042      C1043   1.414       .  A
C1043      C1044   1.413       .  A
C1043     Br1052   1.922       .  S
C1044     Br1048   1.930       .  S
C1053      C1054   1.414       .  A
C1053      C1058   1.421       .  A
C1054      C1055   1.413       .  A
C1054     Br1066   1.925       .  S
C1055      C1056   1.410       .  A
C1055     Br1070   1.930       .  S
C1056      C1057   1.407       .  A
C1056      C1059   1.490       .  S
C1057      C1058   1.405       .  A
C1057     Br1065   1.934       .  S
C1058     Br1069   1.938       .  S
C1059      C1060   1.411   1_565  A
C1059      C1064   1.412   1_565  A
C1060      C1061   1.409       .  A
C1060     Br1071   1.929   1_545  S
C1061      C1062   1.410       .  A
C1061     Br1067   1.929       .  S
C1062      C1063   1.409       .  A
C1063      C1064   1.407       .  A
C1063     Br1072   1.930       .  S
C1064     Br1068   1.930       .  S
C1073      C1074   1.421       .  A
C1073      C1078   1.415       .  A
C1074      C1075   1.408       .  A
C1074     Br1086   1.937       .  S
C1075      C1076   1.408       .  A
C1075     Br1090   1.933       .  S
C1076      C1077   1.409       .  A
C1076      C1079   1.494   1_565  S
C1077      C1078   1.414       .  A
C1077     Br1085   1.929       .  S
C1078     Br1089   1.923       .  S
C1079      C1080   1.408       .  A
C1079      C1084   1.407       .  A
C1080      C1081   1.409       .  A
C1080     Br1091   1.935   1_545  S
C1081      C1082   1.421       .  A
C1081     Br1087   1.936       .  S
C1082      C1083   1.418       .  A
C1083      C1084   1.415       .  A
C1083     Br1092   1.919       .  S
C1084     Br1088   1.930       .  S
C1093      C1094   1.416       .  A
C1093      C1098   1.419       .  A
C1094      C1095   1.409       .  A
C1094     Br1106   1.921       .  S
C1095      C1096   1.412       .  A
C1095     Br1110   1.932       .  S
C1096      C1097   1.409       .  A
C1096      C1099   1.499       .  S
C1097      C1098   1.409       .  A
C1097     Br1105   1.933       .  S
C1098     Br1109   1.919       .  S
C1099      C1100   1.412       .  A
C1099      C1104   1.410       .  A
C1100      C1101   1.408       .  A
C1100     Br1111   1.934       .  S
C1101      C1102   1.417       .  A
C1101     Br1107   1.922       .  S
C1102      C1103   1.419       .  A
C1103      C1104   1.411       .  A
C1103     Br1112   1.919       .  S
C1104     Br1108   1.932       .  S
C1113      C1114   1.416       .  A
C1113      C1118   1.417       .  A
C1114      C1115   1.410       .  A
C1114     Br1126   1.922       .  S
C1115      C1116   1.407       .  A
C1115     Br1130   1.932       .  S
C1116      C1117   1.403       .  A
C1116      C1119   1.483       .  S
C1117      C1118   1.405       .  A
C1117     Br1125   1.933       .  S
C1118     Br1129   1.920       .  S
C1119      C1120   1.403       .  A
C1119      C1124   1.409       .  A
C1120      C1121   1.401       .  A
C1120     Br1131   1.934       .  S
C1121      C1122   1.415       .  A
C1121     Br1127   1.922       .  S
C1122      C1123   1.415       .  A
C1123      C1124   1.412       .  A
C1123     Br1132   1.925       .  S
C1124     Br1128   1.929       .  S
C1133      C1134   1.420       .  A
C1133      C1138   1.414       .  A
C1134      C1135   1.404       .  A
C1134     Br1146   1.939       .  S
C1135      C1136   1.409       .  A
C1135     Br1150   1.936       .  S
C1136      C1137   1.411       .  A
C1136      C1139   1.492       .  S
C1137      C1138   1.415       .  A
C1137     Br1145   1.928       .  S
C1138     Br1149   1.925       .  S
C1139      C1140   1.410       .  A
C1139      C1144   1.408       .  A
C1140      C1141   1.412       .  A
C1140     Br1151   1.932       .  S
C1141      C1142   1.414       .  A
C1141     Br1147   1.924       .  S
C1142      C1143   1.417       .  A
C1143      C1144   1.407       .  A
C1143     Br1152   1.934       .  S
C1144     Br1148   1.931       .  S
C1153      C1154   1.423       .  A
C1153      C1158   1.415       .  A
C1154      C1155   1.408       .  A
C1154     Br1166   1.935       .  S
C1155      C1156   1.404       .  A
C1155     Br1170   1.932       .  S
C1156      C1157   1.409       .  A
C1156      C1159   1.487       .  S
C1157      C1158   1.410       .  A
C1157     Br1165   1.931       .  S
C1158     Br1169   1.928       .  S
C1159      C1160   1.408       .  A
C1159      C1164   1.404       .  A
C1160      C1161   1.413       .  A
C1160     Br1171   1.930       .  S
C1161      C1162   1.415       .  A
C1161     Br1167   1.922       .  S
C1162      C1163   1.423       .  A
C1163      C1164   1.405       .  A
C1163     Br1172   1.938       .  S
C1164     Br1168   1.933       .  S
C1173      C1174   1.419       .  A
C1173      C1178   1.414       .  A
C1174      C1175   1.402       .  A
C1174     Br1186   1.939       .  S
C1175      C1176   1.407       .  A
C1175     Br1190   1.935       .  S
C1176      C1177   1.410       .  A
C1176      C1179   1.488       .  S
C1177      C1178   1.414       .  A
C1177     Br1185   1.928       .  S
C1178     Br1189   1.925       .  S
C1179      C1180   1.407       .  A
C1179      C1184   1.406       .  A
C1180      C1181   1.411       .  A
C1180     Br1191   1.931       .  S
C1181      C1182   1.416       .  A
C1181     Br1187   1.923       .  S
C1182      C1183   1.419       .  A
C1183      C1184   1.408       .  A
C1183     Br1192   1.933       .  S
C1184     Br1188   1.933       .  S
C1193      C1194   1.418       .  A
C1193      C1198   1.418       .  A
C1194      C1195   1.410       .  A
C1194     Br1206   1.926       .  S
C1195      C1196   1.412       .  A
C1195     Br1210   1.933       .  S
C1196      C1197   1.408       .  A
C1196      C1199   1.495       .  S
C1197      C1198   1.408       .  A
C1197     Br1205   1.933       .  S
C1198     Br1209   1.921       .  S
C1199      C1200   1.411       .  A
C1199      C1204   1.408       .  A
C1200      C1201   1.407       .  A
C1200     Br1211   1.932       .  S
C1201      C1202   1.417       .  A
C1201     Br1207   1.924       .  S
C1202      C1203   1.419       .  A
C1203      C1204   1.408       .  A
C1203     Br1212   1.920       .  S
C1204     Br1208   1.932       .  S
C1213      C1214   1.421       .  A
C1213      C1218   1.415       .  A
C1214      C1215   1.404       .  A
C1214     Br1226   1.938       .  S
C1215      C1216   1.405       .  A
C1215     Br1230   1.934       .  S
C1216      C1217   1.407       .  A
C1216      C1219   1.483       .  S
C1217      C1218   1.410       .  A
C1217     Br1225   1.930       .  S
C1218     Br1229   1.922       .  S
C1219      C1220   1.407       .  A
C1219      C1224   1.406       .  A
C1220      C1221   1.407       .  A
C1220     Br1231   1.932       .  S
C1221      C1222   1.414       .  A
C1221     Br1227   1.926       .  S
C1222      C1223   1.418       .  A
C1223      C1224   1.408       .  A
C1223     Br1232   1.931       .  S
C1224     Br1228   1.931       .  S
C1233      C1234   1.423       .  A
C1233      C1238   1.425       .  A
C1234      C1235   1.416       .  A
C1234     Br1246   1.932       .  S
C1235      C1236   1.410       .  A
C1235     Br1250   1.932       .  S
C1236      C1237   1.407       .  A
C1236      C1239   1.504       .  S
C1237      C1238   1.416       .  A
C1237     Br1245   1.931       .  S
C1238     Br1249   1.933       .  S
C1239      C1240   1.412       .  A
C1239      C1244   1.407       .  A
C1240      C1241   1.418       .  A
C1240     Br1251   1.928       .  S
C1241      C1242   1.414       .  A
C1241     Br1247   1.923       .  S
C1242      C1243   1.423       .  A
C1243      C1244   1.412       .  A
C1243     Br1252   1.936       .  S
C1244     Br1248   1.931       .  S
C1253      C1254   1.415       .  A
C1253      C1258   1.422       .  A
C1254      C1255   1.411       .  A
C1254     Br1266   1.921       .  S
C1255      C1256   1.407       .  A
C1255     Br1270   1.930       .  S
C1256      C1257   1.405       .  A
C1256      C1259   1.486       .  S
C1257      C1258   1.406       .  A
C1257     Br1265   1.933       .  S
C1258     Br1269   1.937       .  S
C1259      C1260   1.410       .  A
C1259      C1264   1.405       .  A
C1260      C1261   1.409       .  A
C1260     Br1271   1.930       .  S
C1261      C1262   1.411       .  A
C1261     Br1267   1.930       .  S
C1262      C1263   1.419       .  A
C1263      C1264   1.408       .  A
C1263     Br1272   1.933       .  S
C1264     Br1268   1.931       .  S
C1273      C1274   1.416       .  A
C1273      C1278   1.414       .  A
C1274      C1275   1.410       .  A
C1274     Br1286   1.931       .  S
C1275      C1276   1.408       .  A
C1275     Br1290   1.932       .  S
C1276      C1277   1.412       .  A
C1276      C1279   1.495       .  S
C1277      C1278   1.414       .  A
C1277     Br1285   1.929       .  S
C1278     Br1289   1.930       .  S
C1279      C1280   1.407       .  A
C1279      C1284   1.408       .  A
C1280      C1281   1.411       .  A
C1280     Br1291   1.932       .  S
C1281      C1282   1.424       .  A
C1281     Br1287   1.936       .  S
C1282      C1283   1.416       .  A
C1283      C1284   1.412       .  A
C1283     Br1292   1.919       .  S
C1284     Br1288   1.930       .  S
C1293      C1294   1.415       .  A
C1293      C1298   1.412       .  A
C1294      C1295   1.411       .  A
C1294     Br1306   1.931       .  S
C1295      C1296   1.409       .  A
C1295     Br1310   1.931       .  S
C1296      C1297   1.410       .  A
C1296      C1299   1.491       .  S
C1297      C1298   1.410       .  A
C1297     Br1305   1.930       .  S
C1298     Br1309   1.930       .  S
C1299      C1300   1.408       .  A
C1299      C1304   1.408       .  A
C1300      C1301   1.410       .  A
C1300     Br1311   1.932       .  S
C1301      C1302   1.419       .  A
C1301     Br1307   1.933       .  S
C1302      C1303   1.419       .  A
C1303      C1304   1.411       .  A
C1303     Br1312   1.933       .  S
C1304     Br1308   1.930       .  S
C1313      C1314   1.412       .  A
C1313      C1318   1.414       .  A
C1314      C1315   1.408       .  A
C1314     Br1326   1.931       .  S
C1315      C1316   1.410       .  A
C1315     Br1330   1.930       .  S
C1316      C1317   1.408       .  A
C1316      C1319   1.485       .  S
C1317      C1318   1.407       .  A
C1317     Br1325   1.930       .  S
C1318     Br1329   1.932       .  S
C1319      C1320   1.408       .  A
C1319      C1324   1.408       .  A
C1320      C1321   1.407       .  A
C1320     Br1331   1.931       .  S
C1321      C1322   1.414       .  A
C1321     Br1327   1.932       .  S
C1322      C1323   1.416       .  A
C1323      C1324   1.409       .  A
C1323     Br1332   1.932       .  S
C1324     Br1328   1.930       .  S
C1333      C1334   1.419       .  A
C1333      C1338   1.425       .  A
C1334      C1335   1.412       .  A
C1334     Br1346   1.932       .  S
C1335      C1336   1.408       .  A
C1335     Br1350   1.930       .  S
C1336      C1337   1.405       .  A
C1336      C1339   1.489       .  S
C1337      C1338   1.409       .  A
C1337     Br1345   1.934       .  S
C1338     Br1349   1.936       .  S
C1339      C1340   1.411       .  A
C1339      C1344   1.404       .  A
C1340      C1341   1.416       .  A
C1340     Br1351   1.928       .  S
C1341      C1342   1.415       .  A
C1341     Br1347   1.924       .  S
C1342      C1343   1.422       .  A
C1343      C1344   1.404       .  A
C1343     Br1352   1.937       .  S
C1344     Br1348   1.934       .  S
C1353      C1354   1.424       .  A
C1353      C1358   1.427       .  A
C1354      C1355   1.406       .  A
C1354     Br1366   1.936       .  S
C1355      C1356   1.402       .  A
C1355     Br1370   1.934       .  S
C1356      C1357   1.401       .  A
C1356      C1359   1.473       .  S
C1357      C1358   1.404       .  A
C1357     Br1365   1.935       .  S
C1358     Br1369   1.938       .  S
C1359      C1360   1.407       .  A
C1359      C1364   1.407       .  A
C1360      C1361   1.400       .  A
C1360     Br1371   1.932       .  S
C1361      C1362   1.407       .  A
C1361     Br1367   1.926       .  S
C1362      C1363   1.411       .  A
C1363      C1364   1.405       .  A
C1363     Br1372   1.930       .  S
C1364     Br1368   1.929       .  S
C1373      C1374   1.410       .  A
C1373      C1378   1.411       .  A
C1374      C1375   1.403       .  A
C1374     Br1386   1.931       .  S
C1375      C1376   1.406       .  A
C1375     Br1390   1.930       .  S
C1376      C1377   1.407       .  A
C1376      C1379   1.472       .  S
C1377      C1378   1.403       .  A
C1377     Br1385   1.931       .  S
C1378     Br1389   1.933       .  S
C1379      C1380   1.406       .  A
C1379      C1384   1.409       .  A
C1380      C1381   1.402       .  A
C1380     Br1391   1.931       .  S
C1381      C1382   1.410       .  A
C1381     Br1387   1.932       .  S
C1382      C1383   1.408       .  A
C1383      C1384   1.403       .  A
C1383     Br1392   1.931       .  S
C1384     Br1388   1.930       .  S
C1393      C1394   1.418       .  A
C1393      C1398   1.412       .  A
C1394      C1395   1.413       .  A
C1394     Br1406   1.930       .  S
C1395      C1396   1.409       .  A
C1395     Br1410   1.931       .  S
C1396      C1397   1.410       .  A
C1396      C1399   1.495       .  S
C1397      C1398   1.410       .  A
C1397     Br1405   1.933       .  S
C1398     Br1409   1.918       .  S
C1399      C1400   1.408       .  A
C1399      C1404   1.411       .  A
C1400      C1401   1.409       .  A
C1400     Br1411   1.932       .  S
C1401      C1402   1.420       .  A
C1401     Br1407   1.936       .  S
C1402      C1403   1.413       .  A
C1403      C1404   1.413       .  A
C1403     Br1412   1.920       .  S
C1404     Br1408   1.931       .  S
C1413      C1414   1.417       .  A
C1413      C1418   1.425       .  A
C1414      C1415   1.414       .  A
C1414     Br1426   1.929       .  S
C1415      C1416   1.410       .  A
C1415     Br1430   1.930       .  S
C1416      C1417   1.405       .  A
C1416      C1419   1.493       .  S
C1417      C1418   1.410       .  A
C1417     Br1425   1.933       .  S
C1418     Br1429   1.935       .  S
C1419      C1420   1.405       .  A
C1419      C1424   1.410       .  A
C1420      C1421   1.407       .  A
C1420     Br1431   1.933       .  S
C1421      C1422   1.422       .  A
C1421     Br1427   1.938       .  S
C1422      C1423   1.414       .  A
C1423      C1424   1.415       .  A
C1423     Br1432   1.923       .  S
C1424     Br1428   1.929       .  S
C1433      C1434   1.415       .  A
C1433      C1438   1.417       .  A
C1434      C1435   1.415       .  A
C1434     Br1446   1.930       .  S
C1435      C1436   1.412       .  A
C1435     Br1450   1.929       .  S
C1436      C1437   1.408       .  A
C1436      C1439   1.496       .  S
C1437      C1438   1.410       .  A
C1437     Br1445   1.932       .  S
C1438     Br1449   1.932       .  S
C1439      C1440   1.411       .  A
C1439      C1444   1.407       .  A
C1440      C1441   1.416       .  A
C1440     Br1451   1.929       .  S
C1441      C1442   1.416       .  A
C1441     Br1447   1.921       .  S
C1442      C1443   1.421       .  A
C1443      C1444   1.408       .  A
C1443     Br1452   1.936       .  S
C1444     Br1448   1.933       .  S
C1453      C1454   1.415       .  A
C1453      C1458   1.413       .  A
C1454      C1455   1.409       .  A
C1454     Br1466   1.932       .  S
C1455      C1456   1.408       .  A
C1455     Br1470   1.930       .  S
C1456      C1457   1.408       .  A
C1456      C1459   1.486       .  S
C1457      C1458   1.407       .  A
C1457     Br1465   1.931       .  S
C1458     Br1469   1.932       .  S
C1459      C1460   1.404       .  A
C1459      C1464   1.406       .  A
C1460      C1461   1.408       .  A
C1460     Br1471   1.932       .  S
C1461      C1462   1.422       .  A
C1461     Br1467   1.935       .  S
C1462      C1463   1.422       .  A
C1463      C1464   1.411       .  A
C1463     Br1472   1.928       .  S
C1464     Br1468   1.933       .  S
C1473      C1474   1.418       .  A
C1473      C1478   1.423       .  A
C1474      C1475   1.408       .  A
C1474     Br1486   1.933       .  S
C1475      C1476   1.406       .  A
C1475     Br1490   1.931       .  S
C1476      C1477   1.405       .  A
C1476      C1479   1.484       .  S
C1477      C1478   1.409       .  A
C1477     Br1485   1.933       .  S
C1478     Br1489   1.934       .  S
C1479      C1480   1.408       .  A
C1479      C1484   1.409       .  A
C1480      C1481   1.408       .  A
C1480     Br1491   1.929       .  S
C1481      C1482   1.412       .  A
C1481     Br1487   1.930       .  S
C1482      C1483   1.411       .  A
C1483      C1484   1.407       .  A
C1483     Br1492   1.930       .  S
C1484     Br1488   1.930       .  S
C1493      C1494   1.414       .  A
C1493      C1498   1.419       .  A
C1494      C1495   1.412       .  A
C1494     Br1506   1.930       .  S
C1495      C1496   1.410       .  A
C1495     Br1510   1.930       .  S
C1496      C1497   1.406       .  A
C1496      C1499   1.491       .  S
C1497      C1498   1.410       .  A
C1497     Br1505   1.932       .  S
C1498     Br1509   1.933       .  S
C1499      C1500   1.406       .  A
C1499      C1504   1.410       .  A
C1500      C1501   1.407       .  A
C1500     Br1511   1.932       .  S
C1501      C1502   1.420       .  A
C1501     Br1507   1.937       .  S
C1502      C1503   1.411       .  A
C1503      C1504   1.412       .  A
C1503     Br1512   1.925       .  S
C1504     Br1508   1.928       .  S
C1513      C1514   1.416       .  A
C1513      C1518   1.417       .  A
C1514      C1515   1.408       .  A
C1514     Br1526   1.932       .  S
C1515      C1516   1.408       .  A
C1515     Br1530   1.931       .  S
C1516      C1517   1.408       .  A
C1516      C1519   1.489       .  S
C1517      C1518   1.412       .  A
C1517     Br1525   1.930       .  S
C1518     Br1529   1.932       .  S
C1519      C1520   1.409       .  A
C1519      C1524   1.409       .  A
C1520      C1521   1.408       .  A
C1520     Br1531   1.930       .  S
C1521      C1522   1.408       .  A
C1521     Br1527   1.921       .  S
C1522      C1523   1.412       .  A
C1523      C1524   1.411       .  A
C1523     Br1532   1.927       .  S
C1524     Br1528   1.929       .  S
C1533      C1534   1.419       .  A
C1533      C1538   1.418       .  A
C1534      C1535   1.410       .  A
C1534     Br1546   1.933       .  S
C1535      C1536   1.407       .  A
C1535     Br1550   1.931       .  S
C1536      C1537   1.408       .  A
C1536      C1539   1.489       .  S
C1537      C1538   1.409       .  A
C1537     Br1545   1.932       .  S
C1538     Br1549   1.933       .  S
C1539      C1540   1.408       .  A
C1539      C1544   1.407       .  A
C1540      C1541   1.411       .  A
C1540     Br1551   1.930       .  S
C1541      C1542   1.418       .  A
C1541     Br1547   1.932       .  S
C1542      C1543   1.416       .  A
C1543      C1544   1.408       .  A
C1543     Br1552   1.924       .  S
C1544     Br1548   1.933       .  S
C1553      C1554   1.420       .  A
C1553      C1558   1.421       .  A
C1554      C1555   1.410       .  A
C1554     Br1566   1.919       .  S
C1555      C1556   1.407       .  A
C1555     Br1570   1.933       .  S
C1556      C1557   1.409       .  A
C1556      C1559   1.494       .  S
C1557      C1558   1.409       .  A
C1557     Br1565   1.934       .  S
C1558     Br1569   1.925       .  S
C1559      C1560   1.410       .  A
C1559      C1564   1.407       .  A
C1560      C1561   1.408       .  A
C1560     Br1571   1.932       .  S
C1561      C1562   1.419       .  A
C1561     Br1567   1.926       .  S
C1562      C1563   1.419       .  A
C1563      C1564   1.408       .  A
C1563     Br1572   1.921       .  S
C1564     Br1568   1.932       .  S
C1573      C1574   1.415       .  A
C1573      C1578   1.421       .  A
C1574      C1575   1.410       .  A
C1574     Br1586   1.921       .  S
C1575      C1576   1.407       .  A
C1575     Br1590   1.932       .  S
C1576      C1577   1.407       .  A
C1576      C1579   1.490       .  S
C1577      C1578   1.410       .  A
C1577     Br1585   1.932       .  S
C1578     Br1589   1.933       .  S
C1579      C1580   1.411       .  A
C1579      C1584   1.408       .  A
C1580      C1581   1.414       .  A
C1580     Br1591   1.927       .  S
C1581      C1582   1.412       .  A
C1581     Br1587   1.924       .  S
C1582      C1583   1.417       .  A
C1583      C1584   1.403       .  A
C1583     Br1592   1.938       .  S
C1584     Br1588   1.934       .  S
C1593      C1594   1.419       .  A
C1593      C1598   1.412       .  A
C1594      C1595   1.407       .  A
C1594     Br1606   1.936       .  S
C1595      C1596   1.407       .  A
C1595     Br1610   1.931       .  S
C1596      C1597   1.411       .  A
C1596      C1599   1.491       .  S
C1597      C1598   1.412       .  A
C1597     Br1605   1.930       .  S
C1598     Br1609   1.923       .  S
C1599      C1600   1.409       .  A
C1599      C1604   1.408       .  A
C1600      C1601   1.410       .  A
C1600     Br1611   1.932       .  S
C1601      C1602   1.412       .  A
C1601     Br1607   1.917       .  S
C1602      C1603   1.417       .  A
C1603      C1604   1.411       .  A
C1603     Br1612   1.930       .  S
C1604     Br1608   1.931       .  S
C1613      C1614   1.415       .  A
C1613      C1618   1.421       .  A
C1614      C1615   1.413       .  A
C1614     Br1626   1.923       .  S
C1615      C1616   1.409       .  A
C1615     Br1630   1.931       .  S
C1616      C1617   1.408       .  A
C1616      C1619   1.496       .  S
C1617      C1618   1.412       .  A
C1617     Br1625   1.931       .  S
C1618     Br1629   1.934       .  S
C1619      C1620   1.412       .  A
C1619      C1624   1.409       .  A
C1620      C1621   1.417       .  A
C1620     Br1631   1.927       .  S
C1621      C1622   1.414       .  A
C1621     Br1627   1.925       .  S
C1622      C1623   1.419       .  A
C1623      C1624   1.406       .  A
C1623     Br1632   1.938       .  S
C1624     Br1628   1.935       .  S
C1633      C1634   1.415       .  A
C1633      C1638   1.418       .  A
C1634      C1635   1.402       .  A
C1634     Br1646   1.922       .  S
C1635      C1636   1.403       .  A
C1635     Br1650   1.934       .  S
C1636      C1637   1.406       .  A
C1636      C1639   1.480       .  S
C1637      C1638   1.410       .  A
C1637     Br1645   1.930       .  S
C1638     Br1649   1.923       .  S
C1639      C1640   1.403       .  A
C1639      C1644   1.406       .  A
C1640      C1641   1.403       .  A
C1640     Br1651   1.933       .  S
C1641      C1642   1.415       .  A
C1641     Br1647   1.922       .  S
C1642      C1643   1.419       .  A
C1643      C1644   1.410       .  A
C1643     Br1652   1.924       .  S
C1644     Br1648   1.931       .  S
C1653      C1654   1.421       .  A
C1653      C1658   1.415       .  A
C1654      C1655   1.409       .  A
C1654     Br1666   1.936       .  S
C1655      C1656   1.406       .  A
C1655     Br1670   1.931       .  S
C1656      C1657   1.410       .  A
C1656      C1659   1.495       .  S
C1657      C1658   1.415       .  A
C1657     Br1665   1.929       .  S
C1658     Br1669   1.921       .  S
C1659      C1660   1.412       .  A
C1659      C1664   1.408       .  A
C1660      C1661   1.413       .  A
C1660     Br1671   1.928       .  S
C1661      C1662   1.410       .  A
C1661     Br1667   1.929       .  S
C1662      C1663   1.414       .  A
C1663      C1664   1.410       .  A
C1663     Br1672   1.928       .  S
C1664     Br1668   1.930       .  S
C1673      C1674   1.417       .  A
C1673      C1678   1.411       .  A
C1674      C1675   1.406       .  A
C1674     Br1686   1.931       .  S
C1675      C1676   1.405       .  A
C1675     Br1690   1.933       .  S
C1676      C1677   1.412       .  A
C1676      C1679   1.489       .  S
C1677      C1678   1.413       .  A
C1677     Br1685   1.928       .  S
C1678     Br1689   1.928       .  S
C1679      C1680   1.406       .  A
C1679      C1684   1.406       .  A
C1680      C1681   1.409       .  A
C1680     Br1691   1.933       .  S
C1681      C1682   1.424       .  A
C1681     Br1687   1.937       .  S
C1682      C1683   1.416       .  A
C1683      C1684   1.411       .  A
C1683     Br1692   1.917       .  S
C1684     Br1688   1.931       .  S
C1693      C1694   1.415       .  A
C1693      C1698   1.419       .  A
C1694      C1695   1.413       .  A
C1694     Br1706   1.930       .  S
C1695      C1696   1.411       .  A
C1695     Br1710   1.930       .  S
C1696      C1697   1.408       .  A
C1696      C1699   1.495       .  S
C1697      C1698   1.410       .  A
C1697     Br1705   1.933       .  S
C1698     Br1709   1.933       .  S
C1699      C1700   1.408       .  A
C1699      C1704   1.407       .  A
C1700      C1701   1.412       .  A
C1700     Br1711   1.931       .  S
C1701      C1702   1.416       .  A
C1701     Br1707   1.919       .  S
C1702      C1703   1.424       .  A
C1703      C1704   1.410       .  A
C1703     Br1712   1.936       .  S
C1704     Br1708   1.933       .  S
C1713      C1714   1.413       .  A
C1713      C1718   1.411       .  A
C1714      C1715   1.409       .  A
C1714     Br1726   1.931       .  S
C1715      C1716   1.409       .  A
C1715     Br1730   1.930       .  S
C1716      C1717   1.409       .  A
C1716      C1719   1.487       .  S
C1717      C1718   1.408       .  A
C1717     Br1725   1.930       .  S
C1718     Br1729   1.931       .  S
C1719      C1720   1.409       .  A
C1719      C1724   1.409       .  A
C1720      C1721   1.408       .  A
C1720     Br1731   1.930       .  S
C1721      C1722   1.413       .  A
C1721     Br1727   1.932       .  S
C1722      C1723   1.414       .  A
C1723      C1724   1.409       .  A
C1723     Br1732   1.932       .  S
C1724     Br1728   1.930       .  S
C1733      C1734   1.424       .  A
C1733      C1738   1.422       .  A
C1734      C1735   1.407       .  A
C1734     Br1746   1.936       .  S
C1735      C1736   1.405       .  A
C1735     Br1750   1.935       .  S
C1736      C1737   1.405       .  A
C1736      C1739   1.483       .  S
C1737      C1738   1.409       .  A
C1737     Br1745   1.932       .  S
C1738     Br1749   1.934       .  S
C1739      C1740   1.405       .  A
C1739      C1744   1.408       .  A
C1740      C1741   1.404       .  A
C1740     Br1751   1.933       .  S
C1741      C1742   1.419       .  A
C1741     Br1747   1.936       .  S
C1742      C1743   1.416       .  A
C1743      C1744   1.410       .  A
C1743     Br1752   1.931       .  S
C1744     Br1748   1.929       .  S
C1753      C1754   1.417       .  A
C1753      C1758   1.419       .  A
C1754      C1755   1.411       .  A
C1754     Br1766   1.932       .  S
C1755      C1756   1.408       .  A
C1755     Br1770   1.930       .  S
C1756      C1757   1.408       .  A
C1756      C1759   1.491       .  S
C1757      C1758   1.410       .  A
C1757     Br1765   1.932       .  S
C1758     Br1769   1.934       .  S
C1759      C1760   1.408       .  A
C1759      C1764   1.407       .  A
C1760      C1761   1.412       .  A
C1760     Br1771   1.931       .  S
C1761      C1762   1.421       .  A
C1761     Br1767   1.933       .  S
C1762      C1763   1.420       .  A
C1763      C1764   1.410       .  A
C1763     Br1772   1.934       .  S
C1764     Br1768   1.932       .  S
C1773      C1774   1.408       .  A
C1773      C1778   1.409       .  A
C1774      C1775   1.405       .  A
C1774     Br1786   1.922       .  S
C1775      C1776   1.409       .  A
C1775     Br1790   1.931       .  S
C1776      C1777   1.411       .  A
C1776      C1779   1.484       .  S
C1777      C1778   1.407       .  A
C1777     Br1785   1.930       .  S
C1778     Br1789   1.928       .  S
C1779      C1780   1.406       .  A
C1779      C1784   1.405       .  A
C1780      C1781   1.410       .  A
C1780     Br1791   1.932       .  S
C1781      C1782   1.422       .  A
C1781     Br1787   1.933       .  S
C1782      C1783   1.422       .  A
C1783      C1784   1.405       .  A
C1783     Br1792   1.937       .  S
C1784     Br1788   1.935       .  S
C1793      C1794   1.417       .  A
C1793      C1798   1.412       .  A
C1794      C1795   1.412       .  A
C1794     Br1806   1.929       .  S
C1795      C1796   1.410       .  A
C1795     Br1810   1.932       .  S
C1796      C1797   1.415       .  A
C1796      C1799   1.502       .  S
C1797      C1798   1.416       .  A
C1797     Br1805   1.929       .  S
C1798     Br1809   1.925       .  S
C1799      C1800   1.413       .  A
C1799      C1804   1.410       .  A
C1800      C1801   1.415       .  A
C1800     Br1811   1.930       .  S
C1801      C1802   1.413       .  A
C1801     Br1807   1.922       .  S
C1802      C1803   1.419       .  A
C1803      C1804   1.411       .  A
C1803     Br1812   1.936       .  S
C1804     Br1808   1.931       .  S
C1813      C1814   1.416       .  A
C1813      C1818   1.417       .  A
C1814      C1815   1.401       .  A
C1814     Br1826   1.922       .  S
C1815      C1816   1.403       .  A
C1815     Br1830   1.934       .  S
C1816      C1817   1.407       .  A
C1816      C1819   1.480       .  S
C1817      C1818   1.410       .  A
C1817     Br1825   1.930       .  S
C1818     Br1829   1.925       .  S
C1819      C1820   1.402       .  A
C1819      C1824   1.405       .  A
C1820      C1821   1.404       .  A
C1820     Br1831   1.933       .  S
C1821      C1822   1.416       .  A
C1821     Br1827   1.918       .  S
C1822      C1823   1.418       .  A
C1823      C1824   1.409       .  A
C1823     Br1832   1.918       .  S
C1824     Br1828   1.932       .  S
C1833      C1834   1.416       .  A
C1833      C1838   1.422       .  A
C1834      C1835   1.414       .  A
C1834     Br1846   1.920       .  S
C1835      C1836   1.409       .  A
C1835     Br1850   1.931       .  S
C1836      C1837   1.406       .  A
C1836      C1839   1.494       .  S
C1837      C1838   1.410       .  A
C1837     Br1845   1.932       .  S
C1838     Br1849   1.935       .  S
C1839      C1840   1.408       .  A
C1839      C1844   1.408       .  A
C1840      C1841   1.414       .  A
C1840     Br1851   1.931       .  S
C1841      C1842   1.422       .  A
C1841     Br1847   1.934       .  S
C1842      C1843   1.415       .  A
C1843      C1844   1.409       .  A
C1843     Br1852   1.925       .  S
C1844     Br1848   1.932       .  S
C1853      C1854   1.417       .  A
C1853      C1858   1.413       .  A
C1854      C1855   1.405       .  A
C1854     Br1866   1.937       .  S
C1855      C1856   1.411       .  A
C1855     Br1870   1.935       .  S
C1856      C1857   1.413       .  A
C1856      C1859   1.498   1_556  S
C1857      C1858   1.418       .  A
C1857     Br1865   1.928       .  S
C1858     Br1869   1.923       .  S
C1859      C1860   1.408       .  A
C1859      C1864   1.411       .  A
C1860      C1861   1.410       .  A
C1860     Br1871   1.930   1_554  S
C1861      C1862   1.418       .  A
C1861     Br1867   1.933       .  S
C1862      C1863   1.415       .  A
C1863      C1864   1.415       .  A
C1863     Br1872   1.923       .  S
C1864     Br1868   1.931       .  S
C1873      C1874   1.423       .  A
C1873      C1878   1.416       .  A
C1874      C1875   1.410       .  A
C1874     Br1886   1.935       .  S
C1875      C1876   1.407       .  A
C1875     Br1890   1.934       .  S
C1876      C1877   1.407       .  A
C1876      C1879   1.493       .  S
C1877      C1878   1.412       .  A
C1877     Br1885   1.930       .  S
C1878     Br1889   1.920       .  S
C1879      C1880   1.407       .  A
C1879      C1884   1.412       .  A
C1880      C1881   1.409       .  A
C1880     Br1891   1.932       .  S
C1881      C1882   1.418       .  A
C1881     Br1887   1.932       .  S
C1882      C1883   1.414       .  A
C1883      C1884   1.413       .  A
C1883     Br1892   1.930       .  S
C1884     Br1888   1.929       .  S
C1893      C1894   1.416       .  A
C1893      C1898   1.422       .  A
C1894      C1895   1.418       .  A
C1894     Br1906   1.923       .  S
C1895      C1896   1.411       .  A
C1895     Br1910   1.927       .  S
C1896      C1897   1.409       .  A
C1896      C1899   1.499   1_556  S
C1897      C1898   1.408       .  A
C1897     Br1905   1.936       .  S
C1898     Br1909   1.937       .  S
C1899      C1900   1.409       .  A
C1899      C1904   1.408       .  A
C1900      C1901   1.414       .  A
C1900     Br1911   1.930       .  S
C1901      C1902   1.416       .  A
C1901     Br1907   1.922       .  S
C1902      C1903   1.421       .  A
C1903      C1904   1.412       .  A
C1903     Br1912   1.933       .  S
C1904     Br1908   1.932   1_554  S
C1913      C1914   1.416       .  A
C1913      C1918   1.418       .  A
C1914      C1915   1.409       .  A
C1914     Br1926   1.926       .  S
C1915      C1916   1.413       .  A
C1915     Br1930   1.931       .  S
C1916      C1917   1.407       .  A
C1916      C1919   1.497       .  S
C1917      C1918   1.408       .  A
C1917     Br1925   1.932       .  S
C1918     Br1929   1.920       .  S
C1919      C1920   1.407       .  A
C1919      C1924   1.413       .  A
C1920      C1921   1.408       .  A
C1920     Br1931   1.933       .  S
C1921      C1922   1.418       .  A
C1921     Br1927   1.919       .  S
C1922      C1923   1.418       .  A
C1923      C1924   1.412       .  A
C1923     Br1932   1.925       .  S
C1924     Br1928   1.933       .  S
C1933      C1934   1.418       .  A
C1933      C1938   1.414       .  A
C1934      C1935   1.414       .  A
C1934     Br1946   1.930       .  S
C1935      C1936   1.409       .  A
C1935     Br1950   1.931       .  S
C1936      C1937   1.412       .  A
C1936      C1939   1.502       .  S
C1937      C1938   1.416       .  A
C1937     Br1945   1.929       .  S
C1938     Br1949   1.927       .  S
C1939      C1940   1.407       .  A
C1939      C1944   1.412       .  A
C1940      C1941   1.411       .  A
C1940     Br1951   1.932       .  S
C1941      C1942   1.423       .  A
C1941     Br1947   1.937       .  S
C1942      C1943   1.416       .  A
C1943      C1944   1.418       .  A
C1943     Br1952   1.924       .  S
C1944     Br1948   1.928       .  S
C1953      C1954   1.409       .  A
C1953      C1958   1.412       .  A
C1954      C1955   1.413       .  A
C1954     Br1966   1.928       .  S
C1955      C1956   1.416       .  A
C1955     Br1970   1.930       .  S
C1956      C1957   1.411       .  A
C1956      C1959   1.500       .  S
C1957      C1958   1.410       .  A
C1957     Br1965   1.930       .  S
C1958     Br1969   1.927       .  S
C1959      C1960   1.409       .  A
C1959      C1964   1.411       .  A
C1960      C1961   1.410       .  A
C1960     Br1971   1.932       .  S
C1961      C1962   1.420       .  A
C1961     Br1967   1.932       .  S
C1962      C1963   1.416       .  A
C1963      C1964   1.415       .  A
C1963     Br1972   1.924       .  S
C1964     Br1968   1.932       .  S
C1973      C1974   1.419       .  A
C1973      C1978   1.420       .  A
C1974      C1975   1.407       .  A
C1974     Br1986   1.915       .  S
C1975      C1976   1.405       .  A
C1975     Br1990   1.933       .  S
C1976      C1977   1.412       .  A
C1976      C1979   1.496       .  S
C1977      C1978   1.411       .  A
C1977     Br1985   1.932       .  S
C1978     Br1989   1.925       .  S
C1979      C1980   1.406       .  A
C1979      C1984   1.414       .  A
C1980      C1981   1.405       .  A
C1980     Br1991   1.933       .  S
C1981      C1982   1.417       .  A
C1981     Br1987   1.916       .  S
C1982      C1983   1.416       .  A
C1983      C1984   1.412       .  A
C1983     Br1992   1.924       .  S
C1984     Br1988   1.932       .  S
C1993      C1994   1.409       .  A
C1993      C1998   1.414       .  A
C1994      C1995   1.413       .  A
C1994     Br2006   1.924       .  S
C1995      C1996   1.414       .  A
C1995     Br2010   1.929       .  S
C1996      C1997   1.408       .  A
C1996      C1999   1.494       .  S
C1997      C1998   1.409       .  A
C1997     Br2005   1.931       .  S
C1998     Br2009   1.924       .  S
C1999      C2000   1.406       .  A
C1999      C2004   1.409       .  A
C2000      C2001   1.409       .  A
C2000     Br2011   1.933       .  S
C2001      C2002   1.423       .  A
C2001     Br2007   1.936       .  S
C2002      C2003   1.416       .  A
C2003      C2004   1.414       .  A
C2003     Br2012   1.921       .  S
C2004     Br2008   1.931       .  S
C2013      C2014   1.415       .  A
C2013      C2018   1.419       .  A
C2014      C2015   1.416       .  A
C2014     Br2026   1.922       .  S
C2015      C2016   1.410       .  A
C2015     Br2030   1.927       .  S
C2016      C2017   1.408       .  A
C2016      C2019   1.493       .  S
C2017      C2018   1.406       .  A
C2017     Br2025   1.935       .  S
C2018     Br2029   1.935       .  S
C2019      C2020   1.409       .  A
C2019      C2024   1.408   1_455  A
C2020      C2021   1.412   1_455  A
C2020     Br2031   1.931       .  S
C2021      C2022   1.419       .  A
C2021     Br2027   1.933       .  S
C2022      C2023   1.413       .  A
C2023      C2024   1.410       .  A
C2023     Br2032   1.921       .  S
C2024     Br2028   1.931       .  S
C2033      C2034   1.415       .  A
C2033      C2038   1.418       .  A
C2034      C2035   1.413       .  A
C2034     Br2046   1.922       .  S
C2035      C2036   1.410   1_655  A
C2035     Br2050   1.931       .  S
C2036      C2037   1.408       .  A
C2036      C2039   1.495       .  S
C2037      C2038   1.410   1_455  A
C2037     Br2045   1.931       .  S
C2038     Br2049   1.934       .  S
C2039      C2040   1.410       .  A
C2039      C2044   1.412       .  A
C2040      C2041   1.405       .  A
C2040     Br2051   1.935       .  S
C2041      C2042   1.418       .  A
C2041     Br2047   1.937       .  S
C2042      C2043   1.412       .  A
C2043      C2044   1.416       .  A
C2043     Br2052   1.925       .  S
C2044     Br2048   1.927       .  S
C2053      C2054   1.418       .  A
C2053      C2058   1.418       .  A
C2054      C2055   1.407       .  A
C2054     Br2066   1.914       .  S
C2055      C2056   1.403       .  A
C2055     Br2070   1.935       .  S
C2056      C2057   1.403       .  A
C2056      C2059   1.479       .  S
C2057      C2058   1.407       .  A
C2057     Br2065   1.933       .  S
C2058     Br2069   1.917       .  S
C2059      C2060   1.404       .  A
C2059      C2064   1.404       .  A
C2060      C2061   1.404       .  A
C2060     Br2071   1.934       .  S
C2061      C2062   1.417       .  A
C2061     Br2067   1.923       .  S
C2062      C2063   1.417       .  A
C2063      C2064   1.408       .  A
C2063     Br2072   1.921       .  S
C2064     Br2068   1.931       .  S
C2073      C2074   1.418       .  A
C2073      C2078   1.415       .  A
C2074      C2075   1.409       .  A
C2074     Br2086   1.930       .  S
C2075      C2076   1.408       .  A
C2075     Br2090   1.930       .  S
C2076      C2077   1.408       .  A
C2076      C2079   1.490       .  S
C2077      C2078   1.410       .  A
C2077     Br2085   1.930       .  S
C2078     Br2089   1.920       .  S
C2079      C2080   1.407       .  A
C2079      C2084   1.407       .  A
C2080      C2081   1.410       .  A
C2080     Br2091   1.932       .  S
C2081      C2082   1.417       .  A
C2081     Br2087   1.923       .  S
C2082      C2083   1.417       .  A
C2083      C2084   1.409       .  A
C2083     Br2092   1.927       .  S
C2084     Br2088   1.929       .  S
C2093      C2094   1.415       .  A
C2093      C2098   1.420       .  A
C2094      C2095   1.413       .  A
C2094     Br2106   1.923       .  S
C2095      C2096   1.408       .  A
C2095     Br2110   1.929       .  S
C2096      C2097   1.407       .  A
C2096      C2099   1.488       .  S
C2097      C2098   1.405       .  A
C2097     Br2105   1.934       .  S
C2098     Br2109   1.938       .  S
C2099      C2100   1.406       .  A
C2099      C2104   1.408       .  A
C2100      C2101   1.405       .  A
C2100     Br2111   1.935       .  S
C2101      C2102   1.422       .  A
C2101     Br2107   1.936       .  S
C2102      C2103   1.416       .  A
C2103      C2104   1.411       .  A
C2103     Br2112   1.919       .  S
C2104     Br2108   1.928       .  S
C2113      C2114   1.422       .  A
C2113      C2118   1.416       .  A
C2114      C2115   1.408       .  A
C2114     Br2126   1.937       .  S
C2115      C2116   1.408       .  A
C2115     Br2130   1.934       .  S
C2116      C2117   1.409       .  A
C2116      C2119   1.494       .  S
C2117      C2118   1.414       .  A
C2117     Br2125   1.930       .  S
C2118     Br2129   1.919       .  S
C2119      C2120   1.407       .  A
C2119      C2124   1.414       .  A
C2120      C2121   1.406       .  A
C2120     Br2131   1.933       .  S
C2121      C2122   1.415       .  A
C2121     Br2127   1.926       .  S
C2122      C2123   1.410       .  A
C2123      C2124   1.415       .  A
C2123     Br2132   1.927       .  S
C2124     Br2128   1.928       .  S
C2133      C2134   1.417       .  A
C2133      C2138   1.422       .  A
C2134      C2135   1.418       .  A
C2134     Br2146   1.921       .  S
C2135      C2136   1.414       .  A
C2135     Br2150   1.929       .  S
C2136      C2137   1.411       .  A
C2136      C2139   1.506       .  S
C2137      C2138   1.409       .  A
C2137     Br2145   1.934       .  S
C2138     Br2149   1.937       .  S
C2139      C2140   1.412       .  A
C2139      C2144   1.413       .  A
C2140      C2141   1.412       .  A
C2140     Br2151   1.934       .  S
C2141      C2142   1.422       .  A
C2141     Br2147   1.937       .  S
C2142      C2143   1.416       .  A
C2143      C2144   1.416       .  A
C2143     Br2152   1.921       .  S
C2144     Br2148   1.931       .  S
C2153      C2154   1.417       .  A
C2153      C2158   1.417       .  A
C2154      C2155   1.411       .  A
C2154     Br2166   1.927       .  S
C2155      C2156   1.407       .  A
C2155     Br2170   1.930       .  S
C2156      C2157   1.407       .  A
C2156      C2159   1.489       .  S
C2157      C2158   1.409       .  A
C2157     Br2165   1.932       .  S
C2158     Br2169   1.925       .  S
C2159      C2160   1.407       .  A
C2159      C2164   1.406       .  A
C2160      C2161   1.413       .  A
C2160     Br2171   1.929       .  S
C2161      C2162   1.418       .  A
C2161     Br2167   1.923       .  S
C2162      C2163   1.417       .  A
C2163      C2164   1.406       .  A
C2163     Br2172   1.924       .  S
C2164     Br2168   1.931       .  S
C2173      C2174   1.411       .  A
C2173      C2178   1.416       .  A
C2174      C2175   1.411       .  A
C2174     Br2186   1.921       .  S
C2175      C2176   1.410       .  A
C2175     Br2190   1.930       .  S
C2176      C2177   1.409       .  A
C2176      C2179   1.494       .  S
C2177      C2178   1.411       .  A
C2177     Br2185   1.930       .  S
C2178     Br2189   1.929       .  S
C2179      C2180   1.409       .  A
C2179      C2184   1.404       .  A
C2180      C2181   1.416       .  A
C2180     Br2191   1.931       .  S
C2181      C2182   1.419       .  A
C2181     Br2187   1.919       .  S
C2182      C2183   1.426       .  A
C2183      C2184   1.408       .  A
C2183     Br2192   1.937       .  S
C2184     Br2188   1.933       .  S
C2193      C2194   1.413       .  A
C2193      C2198   1.409       .  A
C2194      C2195   1.413       .  A
C2194     Br2206   1.927       .  S
C2195      C2196   1.411       .  A
C2195     Br2210   1.930       .  S
C2196      C2197   1.414       .  A
C2196      C2199   1.502       .  S
C2197      C2198   1.414       .  A
C2197     Br2205   1.929       .  S
C2198     Br2209   1.928       .  S
C2199      C2200   1.410       .  A
C2199      C2204   1.411       .  A
C2200      C2201   1.412       .  A
C2200     Br2211   1.932       .  S
C2201      C2202   1.420       .  A
C2201     Br2207   1.935       .  S
C2202      C2203   1.414       .  A
C2203      C2204   1.415       .  A
C2203     Br2212   1.920       .  S
C2204     Br2208   1.930       .  S
C2213      C2214   1.414       .  A
C2213      C2218   1.410       .  A
C2214      C2215   1.408       .  A
C2214     Br2226   1.926       .  S
C2215      C2216   1.407       .  A
C2215     Br2230   1.931       .  S
C2216      C2217   1.413       .  A
C2216      C2219   1.493       .  S
C2217      C2218   1.414       .  A
C2217     Br2225   1.928       .  S
C2218     Br2229   1.928       .  S
C2219      C2220   1.408       .  A
C2219      C2224   1.412       .  A
C2220      C2221   1.406       .  A
C2220     Br2231   1.932       .  S
C2221      C2222   1.415       .  A
C2221     Br2227   1.935       .  S
C2222      C2223   1.411       .  A
C2223      C2224   1.415       .  A
C2223     Br2232   1.925       .  S
C2224     Br2228   1.927       .  S
C2233      C2234   1.420       .  A
C2233      C2238   1.414       .  A
C2234      C2235   1.410       .  A
C2234     Br2246   1.935       .  S
C2235      C2236   1.409       .  A
C2235     Br2250   1.931       .  S
C2236      C2237   1.411       .  A
C2236      C2239   1.499       .  S
C2237      C2238   1.414       .  A
C2237     Br2245   1.931       .  S
C2238     Br2249   1.922       .  S
C2239      C2240   1.408       .  A
C2239      C2244   1.413       .  A
C2240      C2241   1.412       .  A
C2240     Br2251   1.932       .  S
C2241      C2242   1.418       .  A
C2241     Br2247   1.930       .  S
C2242      C2243   1.412       .  A
C2243      C2244   1.414       .  A
C2243     Br2252   1.925       .  S
C2244     Br2248   1.930       .  S
C2253      C2254   1.416       .  A
C2253      C2258   1.418       .  A
C2254      C2255   1.411       .  A
C2254     Br2266   1.932       .  S
C2255      C2256   1.409       .  A
C2255     Br2270   1.930       .  S
C2256      C2257   1.409       .  A
C2256      C2259   1.493       .  S
C2257      C2258   1.410       .  A
C2257     Br2265   1.931       .  S
C2258     Br2269   1.933       .  S
C2259      C2260   1.407       .  A
C2259      C2264   1.408       .  A
C2260      C2261   1.410       .  A
C2260     Br2271   1.933       .  S
C2261      C2262   1.416       .  A
C2261     Br2267   1.920       .  S
C2262      C2263   1.419       .  A
C2263      C2264   1.412       .  A
C2263     Br2272   1.932       .  S
C2264     Br2268   1.930       .  S
C2273      C2274   1.418       .  A
C2273      C2278   1.418       .  A
C2274      C2275   1.410       .  A
C2274     Br2286   1.933       .  S
C2275      C2276   1.406       .  A
C2275     Br2290   1.930       .  S
C2276      C2277   1.405       .  A
C2276      C2279   1.485       .  S
C2277      C2278   1.408       .  A
C2277     Br2285   1.933       .  S
C2278     Br2289   1.923       .  S
C2279      C2280   1.409       .  A
C2279      C2284   1.409       .  A
C2280      C2281   1.407       .  A
C2280     Br2291   1.931       .  S
C2281      C2282   1.410       .  A
C2281     Br2287   1.931       .  S
C2282      C2283   1.412       .  A
C2283      C2284   1.409       .  A
C2283     Br2292   1.930       .  S
C2284     Br2288   1.929       .  S
C2293      C2294   1.411       .  A
C2293      C2298   1.418       .  A
C2294      C2295   1.416       .  A
C2294     Br2306   1.927       .  S
C2295      C2296   1.414       .  A
C2295     Br2310   1.928       .  S
C2296      C2297   1.410       .  A
C2296      C2299   1.504       .  S
C2297      C2298   1.414       .  A
C2297     Br2305   1.931       .  S
C2298     Br2309   1.930       .  S
C2299      C2300   1.411       .  A
C2299      C2304   1.408       .  A
C2300      C2301   1.418       .  A
C2300     Br2311   1.929       .  S
C2301      C2302   1.417       .  A
C2301     Br2307   1.920       .  S
C2302      C2303   1.424       .  A
C2303      C2304   1.413       .  A
C2303     Br2312   1.937       .  S
C2304     Br2308   1.932       .  S
C2313      C2314   1.416       .  A
C2313      C2318   1.413       .  A
C2314      C2315   1.412       .  A
C2314     Br2326   1.932       .  S
C2315      C2316   1.410       .  A
C2315     Br2330   1.930       .  S
C2316      C2317   1.409       .  A
C2316      C2319   1.493       .  S
C2317      C2318   1.410       .  A
C2317     Br2325   1.930       .  S
C2318     Br2329   1.930       .  S
C2319      C2320   1.408       .  A
C2319      C2324   1.408       .  A
C2320      C2321   1.412       .  A
C2320     Br2331   1.931       .  S
C2321      C2322   1.420       .  A
C2321     Br2327   1.932       .  S
C2322      C2323   1.421       .  A
C2323      C2324   1.411       .  A
C2323     Br2332   1.933       .  S
C2324     Br2328   1.932       .  S
C2333      C2334   1.432       .  A
C2333      C2338   1.433       .  A
C2334      C2335   1.416       .  A
C2334     Br2346   1.937       .  S
C2335      C2336   1.405       .  A
C2335     Br2350   1.934       .  S
C2336      C2337   1.404       .  A
C2336      C2339   1.498       .  S
C2337      C2338   1.414       .  A
C2337     Br2345   1.936       .  S
C2338     Br2349   1.938       .  S
C2339      C2340   1.411       .  A
C2339      C2344   1.411       .  A
C2340      C2341   1.412       .  A
C2340     Br2351   1.930       .  S
C2341      C2342   1.413       .  A
C2341     Br2347   1.930       .  S
C2342      C2343   1.413       .  A
C2343      C2344   1.412       .  A
C2343     Br2352   1.931       .  S
C2344     Br2348   1.929       .  S
C2353      C2354   1.416       .  A
C2353      C2358   1.423       .  A
C2354      C2355   1.416       .  A
C2354     Br2366   1.918       .  S
C2355      C2356   1.409       .  A
C2355     Br2370   1.931       .  S
C2356      C2357   1.408       .  A
C2356      C2359   1.503       .  S
C2357      C2358   1.414       .  A
C2357     Br2365   1.930       .  S
C2358     Br2369   1.934       .  S
C2359      C2360   1.412       .  A
C2359      C2364   1.409       .  A
C2360      C2361   1.415       .  A
C2360     Br2371   1.930       .  S
C2361      C2362   1.415       .  A
C2361     Br2367   1.930       .  S
C2362      C2363   1.421       .  A
C2363      C2364   1.416       .  A
C2363     Br2372   1.932       .  S
C2364     Br2368   1.930       .  S
C2373      C2374   1.420       .  A
C2373      C2378   1.420       .  A
C2374      C2375   1.406       .  A
C2374     Br2386   1.915       .  S
C2375      C2376   1.405       .  A
C2375     Br2390   1.936       .  S
C2376      C2377   1.411       .  A
C2376      C2379   1.494       .  S
C2377      C2378   1.413       .  A
C2377     Br2385   1.931       .  S
C2378     Br2389   1.926       .  S
C2379      C2380   1.409       .  A
C2379      C2384   1.412       .  A
C2380      C2381   1.411       .  A
C2380     Br2391   1.932       .  S
C2381      C2382   1.417       .  A
C2381     Br2387   1.924       .  S
C2382      C2383   1.411       .  A
C2383      C2384   1.405       .  A
C2383     Br2392   1.924       .  S
C2384     Br2388   1.929       .  S
C2393      C2394   1.424       .  A
C2393      C2398   1.416       .  A
C2394      C2395   1.411       .  A
C2394     Br2406   1.937       .  S
C2395      C2396   1.408       .  A
C2395     Br2410   1.933       .  S
C2396      C2397   1.411       .  A
C2396      C2399   1.502       .  S
C2397      C2398   1.417       .  A
C2397     Br2405   1.929       .  S
C2398     Br2409   1.923       .  S
C2399      C2400   1.412       .  A
C2399      C2404   1.409       .  A
C2400      C2401   1.415       .  A
C2400     Br2411   1.930       .  S
C2401      C2402   1.413       .  A
C2401     Br2407   1.925       .  S
C2402      C2403   1.420       .  A
C2403      C2404   1.415       .  A
C2403     Br2412   1.929       .  S
C2404     Br2408   1.931       .  S
C2413      C2414   1.422       .  A
C2413      C2418   1.415       .  A
C2414      C2415   1.413       .  A
C2414     Br2426   1.930       .  S
C2415      C2416   1.408       .  A
C2415     Br2430   1.932       .  S
C2416      C2417   1.409       .  A
C2416      C2419   1.497       .  S
C2417      C2418   1.412       .  A
C2417     Br2425   1.932       .  S
C2418     Br2429   1.923       .  S
C2419      C2420   1.410       .  A
C2419      C2424   1.408       .  A
C2420      C2421   1.411       .  A
C2420     Br2431   1.932       .  S
C2421      C2422   1.419       .  A
C2421     Br2427   1.935       .  S
C2422      C2423   1.415       .  A
C2423      C2424   1.412       .  A
C2423     Br2432   1.918       .  S
C2424     Br2428   1.931       .  S
C2433      C2434   1.420       .  A
C2433      C2438   1.415       .  A
C2434      C2435   1.408       .  A
C2434     Br2446   1.937       .  S
C2435      C2436   1.411       .  A
C2435     Br2450   1.935       .  S
C2436      C2437   1.413       .  A
C2436      C2439   1.502       .  S
C2437      C2438   1.416       .  A
C2437     Br2445   1.930       .  S
C2438     Br2449   1.921       .  S
C2439      C2440   1.413       .  A
C2439      C2444   1.413       .  A
C2440      C2441   1.410       .  A
C2440     Br2451   1.934       .  S
C2441      C2442   1.419       .  A
C2441     Br2447   1.935       .  S
C2442      C2443   1.411       .  A
C2443      C2444   1.413       .  A
C2443     Br2452   1.918       .  S
C2444     Br2448   1.929       .  S
C2453      C2454   1.418       .  A
C2453      C2458   1.419       .  A
C2454      C2455   1.411       .  A
C2454     Br2466   1.924       .  S
C2455      C2456   1.406       .  A
C2455     Br2470   1.930       .  S
C2456      C2457   1.408       .  A
C2456      C2459   1.493       .  S
C2457      C2458   1.411       .  A
C2457     Br2465   1.933       .  S
C2458     Br2469   1.922       .  S
C2459      C2460   1.406       .  A
C2459      C2464   1.411       .  A
C2460      C2461   1.403       .  A
C2460     Br2471   1.930       .  S
C2461      C2462   1.414       .  A
C2461     Br2467   1.923       .  S
C2462      C2463   1.417       .  A
C2463      C2464   1.416       .  A
C2463     Br2472   1.923       .  S
C2464     Br2468   1.928       .  S
C2473      C2474   1.419       .  A
C2473      C2478   1.419       .  A
C2474      C2475   1.412       .  A
C2474     Br2486   1.932       .  S
C2475      C2476   1.408       .  A
C2475     Br2490   1.930       .  S
C2476      C2477   1.407       .  A
C2476      C2479   1.492       .  S
C2477      C2478   1.410       .  A
C2477     Br2485   1.931       .  S
C2478     Br2489   1.933       .  S
C2479      C2480   1.408       .  A
C2479      C2484   1.408       .  A
C2480      C2481   1.411       .  A
C2480     Br2491   1.930       .  S
C2481      C2482   1.418       .  A
C2481     Br2487   1.933       .  S
C2482      C2483   1.419       .  A
C2483      C2484   1.411       .  A
C2483     Br2492   1.933       .  S
C2484     Br2488   1.931       .  S
C2493      C2494   1.421       .  A
C2493      C2498   1.418       .  A
C2494      C2495   1.416       .  A
C2494     Br2506   1.931       .  S
C2495      C2496   1.409       .  A
C2495     Br2510   1.931       .  S
C2496      C2497   1.411       .  A
C2496      C2499   1.503       .  S
C2497      C2498   1.415       .  A
C2497     Br2505   1.930       .  S
C2498     Br2509   1.931       .  S
C2499      C2500   1.414       .  A
C2499      C2504   1.408       .  A
C2500      C2501   1.419       .  A
C2500     Br2511   1.928       .  S
C2501      C2502   1.414       .  A
C2501     Br2507   1.924       .  S
C2502      C2503   1.419       .  A
C2503      C2504   1.410       .  A
C2503     Br2512   1.934       .  S
C2504     Br2508   1.931       .  S
C2513      C2514   1.412       .  A
C2513      C2518   1.415       .  A
C2514      C2515   1.408       .  A
C2514     Br2526   1.931       .  S
C2515      C2516   1.409       .  A
C2515     Br2530   1.931       .  S
C2516      C2517   1.409       .  A
C2516      C2519   1.490       .  S
C2517      C2518   1.412       .  A
C2517     Br2525   1.929       .  S
C2518     Br2529   1.930       .  S
C2519      C2520   1.408       .  A
C2519      C2524   1.408       .  A
C2520      C2521   1.410       .  A
C2520     Br2531   1.930       .  S
C2521      C2522   1.415       .  A
C2521     Br2527   1.931       .  S
C2522      C2523   1.415       .  A
C2523      C2524   1.411       .  A
C2523     Br2532   1.922       .  S
C2524     Br2528   1.931       .  S
C2533      C2534   1.410       .  A
C2533      C2538   1.416       .  A
C2534      C2535   1.413       .  A
C2534     Br2546   1.928       .  S
C2535      C2536   1.413       .  A
C2535     Br2550   1.928       .  S
C2536      C2537   1.408       .  A
C2536      C2539   1.494       .  S
C2537      C2538   1.410       .  A
C2537     Br2545   1.931       .  S
C2538     Br2549   1.929       .  S
C2539      C2540   1.407       .  A
C2539      C2544   1.410       .  A
C2540      C2541   1.410       .  A
C2540     Br2551   1.932       .  S
C2541      C2542   1.424       .  A
C2541     Br2547   1.938       .  S
C2542      C2543   1.414       .  A
C2543      C2544   1.413       .  A
C2543     Br2552   1.922       .  S
C2544     Br2548   1.929       .  S
C2553      C2554   1.413       .  A
C2553      C2558   1.412       .  A
C2554      C2555   1.410       .  A
C2554     Br2566   1.931       .  S
C2555      C2556   1.410       .  A
C2555     Br2570   1.929       .  S
C2556      C2557   1.409       .  A
C2556      C2559   1.488       .  S
C2557      C2558   1.408       .  A
C2557     Br2565   1.930       .  S
C2558     Br2569   1.932       .  S
C2559      C2560   1.408       .  A
C2559      C2564   1.408       .  A
C2560      C2561   1.409       .  A
C2560     Br2571   1.931       .  S
C2561      C2562   1.418       .  A
C2561     Br2567   1.933       .  S
C2562      C2563   1.416       .  A
C2563      C2564   1.410       .  A
C2563     Br2572   1.932       .  S
C2564     Br2568   1.930       .  S
C2573      C2574   1.419       .  A
C2573      C2578   1.414       .  A
C2574      C2575   1.413       .  A
C2574     Br2586   1.933       .  S
C2575      C2576   1.409       .  A
C2575     Br2590   1.930       .  S
C2576      C2577   1.410       .  A
C2576      C2579   1.496       .  S
C2577      C2578   1.411       .  A
C2577     Br2585   1.930       .  S
C2578     Br2589   1.931       .  S
C2579      C2580   1.409       .  A
C2579      C2584   1.409       .  A
C2580      C2581   1.413       .  A
C2580     Br2591   1.930       .  S
C2581      C2582   1.418       .  A
C2581     Br2587   1.932       .  S
C2582      C2583   1.417       .  A
C2583      C2584   1.412       .  A
C2583     Br2592   1.930       .  S
C2584     Br2588   1.931       .  S
C2593      C2594   1.419       .  A
C2593      C2598   1.413       .  A
C2594      C2595   1.408       .  A
C2594     Br2606   1.936       .  S
C2595      C2596   1.407       .  A
C2595     Br2610   1.932       .  S
C2596      C2597   1.411       .  A
C2596      C2599   1.497       .  S
C2597      C2598   1.416       .  A
C2597     Br2605   1.928       .  S
C2598     Br2609   1.923       .  S
C2599      C2600   1.412       .  A
C2599      C2604   1.409       .  A
C2600      C2601   1.413       .  A
C2600     Br2611   1.929       .  S
C2601      C2602   1.412       .  A
C2601     Br2607   1.929       .  S
C2602      C2603   1.415       .  A
C2603      C2604   1.412       .  A
C2603     Br2612   1.930       .  S
C2604     Br2608   1.930       .  S
C2613      C2614   1.418       .  A
C2613      C2618   1.418       .  A
C2614      C2615   1.409       .  A
C2614     Br2626   1.922       .  S
C2615      C2616   1.406       .  A
C2615     Br2630   1.934       .  S
C2616      C2617   1.407       .  A
C2616      C2619   1.490       .  S
C2617      C2618   1.411       .  A
C2617     Br2625   1.931       .  S
C2618     Br2629   1.925       .  S
C2619      C2620   1.408       .  A
C2619      C2624   1.405       .  A
C2620      C2621   1.414       .  A
C2620     Br2631   1.930       .  S
C2621      C2622   1.419       .  A
C2621     Br2627   1.922       .  S
C2622      C2623   1.415       .  A
C2623      C2624   1.403       .  A
C2623     Br2632   1.921       .  S
C2624     Br2628   1.931       .  S
C2633      C2634   1.410       .  A
C2633      C2638   1.415       .  A
C2634      C2635   1.414       .  A
C2634     Br2646   1.927       .  S
C2635      C2636   1.413       .  A
C2635     Br2650   1.928       .  S
C2636      C2637   1.409       .  A
C2636      C2639   1.498       .  S
C2637      C2638   1.412       .  A
C2637     Br2645   1.930       .  S
C2638     Br2649   1.927       .  S
C2639      C2640   1.406       .  A
C2639      C2644   1.409       .  A
C2640      C2641   1.411       .  A
C2640     Br2651   1.931       .  S
C2641      C2642   1.424       .  A
C2641     Br2647   1.937       .  S
C2642      C2643   1.416       .  A
C2643      C2644   1.415       .  A
C2643     Br2652   1.921       .  S
C2644     Br2648   1.930       .  S
C2653      C2654   1.417       .  A
C2653      C2658   1.416       .  A
C2654      C2655   1.410       .  A
C2654     Br2666   1.935       .  S
C2655      C2656   1.411       .  A
C2655     Br2670   1.933       .  S
C2656      C2657   1.407       .  A
C2656      C2659   1.495       .  S
C2657      C2658   1.411       .  A
C2657     Br2665   1.932       .  S
C2658     Br2669   1.917       .  S
C2659      C2660   1.407       .  A
C2659      C2664   1.411   1_565  A
C2660      C2661   1.411   1_565  A
C2660     Br2671   1.931       .  S
C2661      C2662   1.421       .  A
C2661     Br2667   1.932       .  S
C2662      C2663   1.413       .  A
C2663      C2664   1.410       .  A
C2663     Br2672   1.924       .  S
C2664     Br2668   1.934       .  S
C2673      C2674   1.416       .  A
C2673      C2678   1.422       .  A
C2674      C2675   1.415       .  A
C2674     Br2686   1.919       .  S
C2675      C2676   1.408       .  A
C2675     Br2690   1.930       .  S
C2676      C2677   1.408       .  A
C2676      C2679   1.502       .  S
C2677      C2678   1.414       .  A
C2677     Br2685   1.930       .  S
C2678     Br2689   1.931       .  S
C2679      C2680   1.415       .  A
C2679      C2684   1.406       .  A
C2680      C2681   1.419       .  A
C2680     Br2691   1.928       .  S
C2681      C2682   1.413       .  A
C2681     Br2687   1.927       .  S
C2682      C2683   1.416       .  A
C2683      C2684   1.411       .  A
C2683     Br2692   1.924       .  S
C2684     Br2688   1.931       .  S
C2693      C2694   1.417       .  A
C2693      C2698   1.413       .  A
C2694      C2695   1.408       .  A
C2694     Br2706   1.934       .  S
C2695      C2696   1.412       .  A
C2695     Br2710   1.934       .  S
C2696      C2697   1.412       .  A
C2696      C2699   1.500       .  S
C2697      C2698   1.413       .  A
C2697     Br2705   1.929       .  S
C2698     Br2709   1.921       .  S
C2699      C2700   1.410   1_565  A
C2699      C2704   1.411   1_565  A
C2700      C2701   1.410       .  A
C2700     Br2711   1.933   1_545  S
C2701      C2702   1.422       .  A
C2701     Br2707   1.936       .  S
C2702      C2703   1.415       .  A
C2703      C2704   1.414       .  A
C2703     Br2712   1.919       .  S
C2704     Br2708   1.931   1_545  S
C2713      C2714   1.414       .  A
C2713      C2718   1.408       .  A
C2714      C2715   1.404       .  A
C2714     Br2726   1.931       .  S
C2715      C2716   1.410       .  A
C2715     Br2730   1.933       .  S
C2716      C2717   1.414       .  A
C2716      C2719   1.488       .  S
C2717      C2718   1.409       .  A
C2717     Br2725   1.931       .  S
C2718     Br2729   1.925       .  S
C2719      C2720   1.409       .  A
C2719      C2724   1.407       .  A
C2720      C2721   1.409       .  A
C2720     Br2731   1.932       .  S
C2721      C2722   1.416       .  A
C2721     Br2727   1.920       .  S
C2722      C2723   1.413       .  A
C2723      C2724   1.405       .  A
C2723     Br2732   1.920       .  S
C2724     Br2728   1.933       .  S
C2733      C2734   1.414       .  A
C2733      C2738   1.418       .  A
C2734      C2735   1.408       .  A
C2734     Br2746   1.920       .  S
C2735      C2736   1.409       .  A
C2735     Br2750   1.928       .  S
C2736      C2737   1.409       .  A
C2736      C2739   1.495       .  S
C2737      C2738   1.411       .  A
C2737     Br2745   1.928       .  S
C2738     Br2749   1.930       .  S
C2739      C2740   1.404       .  A
C2739      C2744   1.406       .  A
C2740      C2741   1.412       .  A
C2740     Br2751   1.935       .  S
C2741      C2742   1.431       .  A
C2741     Br2747   1.937       .  S
C2742      C2743   1.431       .  A
C2743      C2744   1.416       .  A
C2743     Br2752   1.935       .  S
C2744     Br2748   1.934       .  S
C2753      C2754   1.416       .  A
C2753      C2758   1.424       .  A
C2754      C2755   1.413       .  A
C2754     Br2766   1.919       .  S
C2755      C2756   1.407       .  A
C2755     Br2770   1.930       .  S
C2756      C2757   1.407       .  A
C2756      C2759   1.495       .  S
C2757      C2758   1.411       .  A
C2757     Br2765   1.932       .  S
C2758     Br2769   1.936       .  S
C2759      C2760   1.407       .  A
C2759      C2764   1.413       .  A
C2760      C2761   1.409       .  A
C2760     Br2771   1.931       .  S
C2761      C2762   1.417       .  A
C2761     Br2767   1.930       .  S
C2762      C2763   1.412       .  A
C2763      C2764   1.415       .  A
C2763     Br2772   1.927       .  S
C2764     Br2768   1.928       .  S
C2773      C2774   1.419       .  A
C2773      C2778   1.417       .  A
C2774      C2775   1.408       .  A
C2774     Br2786   1.918       .  S
C2775      C2776   1.407       .  A
C2775     Br2790   1.932       .  S
C2776      C2777   1.409       .  A
C2776      C2779   1.491       .  S
C2777      C2778   1.405       .  A
C2777     Br2785   1.931       .  S
C2778     Br2789   1.923       .  S
C2779      C2780   1.407       .  A
C2779      C2784   1.411       .  A
C2780      C2781   1.406       .  A
C2780     Br2791   1.933       .  S
C2781      C2782   1.417       .  A
C2781     Br2787   1.921       .  S
C2782      C2783   1.419       .  A
C2783      C2784   1.408       .  A
C2783     Br2792   1.925       .  S
C2784     Br2788   1.933       .  S
C2793      C2794   1.415       .  A
C2793      C2798   1.423       .  A
C2794      C2795   1.415       .  A
C2794     Br2806   1.922       .  S
C2795      C2796   1.411       .  A
C2795     Br2810   1.930       .  S
C2796      C2797   1.407       .  A
C2796      C2799   1.498       .  S
C2797      C2798   1.410       .  A
C2797     Br2805   1.931       .  S
C2798     Br2809   1.937       .  S
C2799      C2800   1.407       .  A
C2799      C2804   1.411       .  A
C2800      C2801   1.413       .  A
C2800     Br2811   1.932       .  S
C2801      C2802   1.423       .  A
C2801     Br2807   1.934       .  S
C2802      C2803   1.418       .  A
C2803      C2804   1.415       .  A
C2803     Br2812   1.930       .  S
C2804     Br2808   1.931       .  S
C2813      C2814   1.420       .  A
C2813      C2818   1.416       .  A
C2814      C2815   1.413       .  A
C2814     Br2826   1.931       .  S
C2815      C2816   1.408       .  A
C2815     Br2830   1.931   1_556  S
C2816      C2817   1.407       .  A
C2816      C2819   1.495       .  S
C2817      C2818   1.412       .  A
C2817     Br2825   1.931       .  S
C2818     Br2829   1.921       .  S
C2819      C2820   1.412   1_556  A
C2819      C2824   1.408   1_556  A
C2820      C2821   1.418       .  A
C2820     Br2831   1.928   1_554  S
C2821      C2822   1.415       .  A
C2821     Br2827   1.925       .  S
C2822      C2823   1.418       .  A
C2823      C2824   1.405       .  A
C2823     Br2832   1.937       .  S
C2824     Br2828   1.934   1_554  S
C2833      C2834   1.422       .  A
C2833      C2838   1.415       .  A
C2834      C2835   1.409       .  A
C2834     Br2846   1.934       .  S
C2835      C2836   1.407       .  A
C2835     Br2850   1.933       .  S
C2836      C2837   1.409       .  A
C2836      C2839   1.493       .  S
C2837      C2838   1.413       .  A
C2837     Br2845   1.930       .  S
C2838     Br2849   1.920       .  S
C2839      C2840   1.410       .  A
C2839      C2844   1.410       .  A
C2840      C2841   1.411       .  A
C2840     Br2851   1.931       .  S
C2841      C2842   1.417       .  A
C2841     Br2847   1.932       .  S
C2842      C2843   1.415       .  A
C2843      C2844   1.410       .  A
C2843     Br2852   1.932       .  S
C2844     Br2848   1.930       .  S
C2853      C2854   1.420       .  A
C2853      C2858   1.414       .  A
C2854      C2855   1.411       .  A
C2854     Br2866   1.933       .  S
C2855      C2856   1.408       .  A
C2855     Br2870   1.929   1_556  S
C2856      C2857   1.408       .  A
C2856      C2859   1.494   1_556  S
C2857      C2858   1.411       .  A
C2857     Br2865   1.931       .  S
C2858     Br2869   1.922       .  S
C2859      C2860   1.410       .  A
C2859      C2864   1.408       .  A
C2860      C2861   1.415       .  A
C2860     Br2871   1.928   1_554  S
C2861      C2862   1.414       .  A
C2861     Br2867   1.925       .  S
C2862      C2863   1.420       .  A
C2863      C2864   1.407       .  A
C2863     Br2872   1.937       .  S
C2864     Br2868   1.934       .  S
C2873      C2874   1.415       .  A
C2873      C2878   1.419       .  A
C2874      C2875   1.403       .  A
C2874     Br2886   1.922       .  S
C2875      C2876   1.404       .  A
C2875     Br2890   1.934       .  S
C2876      C2877   1.404       .  A
C2876      C2879   1.479       .  S
C2877      C2878   1.410       .  A
C2877     Br2885   1.931       .  S
C2878     Br2889   1.921       .  S
C2879      C2880   1.408       .  A
C2879      C2884   1.403       .  A
C2880      C2881   1.410       .  A
C2880     Br2891   1.929       .  S
C2881      C2882   1.416       .  A
C2881     Br2887   1.926       .  S
C2882      C2883   1.414       .  A
C2883      C2884   1.400       .  A
C2883     Br2892   1.924       .  S
C2884     Br2888   1.933       .  S
C2893      C2894   1.413       .  A
C2893      C2898   1.417       .  A
C2894      C2895   1.413       .  A
C2894     Br2906   1.923       .  S
C2895      C2896   1.411       .  A
C2895     Br2910   1.930       .  S
C2896      C2897   1.407       .  A
C2896      C2899   1.491       .  S
C2897      C2898   1.406       .  A
C2897     Br2905   1.931       .  S
C2898     Br2909   1.936       .  S
C2899      C2900   1.411       .  A
C2899      C2904   1.409       .  A
C2900      C2901   1.410       .  A
C2900     Br2911   1.930       .  S
C2901      C2902   1.411       .  A
C2901     Br2907   1.930       .  S
C2902      C2903   1.416       .  A
C2903      C2904   1.410       .  A
C2903     Br2912   1.932       .  S
C2904     Br2908   1.931       .  S
C2913      C2914   1.411       .  A
C2913      C2918   1.418       .  A
C2914      C2915   1.409       .  A
C2914     Br2926   1.925       .  S
C2915      C2916   1.409       .  A
C2915     Br2930   1.930       .  S
C2916      C2917   1.405       .  A
C2916      C2919   1.483       .  S
C2917      C2918   1.404       .  A
C2917     Br2925   1.931       .  S
C2918     Br2929   1.937       .  S
C2919      C2920   1.406       .  A
C2919      C2924   1.412       .  A
C2920      C2921   1.405       .  A
C2920     Br2931   1.932       .  S
C2921      C2922   1.411       .  A
C2921     Br2927   1.924       .  S
C2922      C2923   1.406       .  A
C2923      C2924   1.408       .  A
C2923     Br2932   1.928       .  S
C2924     Br2928   1.928       .  S
C2933      C2934   1.417       .  A
C2933      C2938   1.417       .  A
C2934      C2935   1.408       .  A
C2934     Br2946   1.922       .  S
C2935      C2936   1.411       .  A
C2935     Br2950   1.934       .  S
C2936      C2937   1.411       .  A
C2936      C2939   1.499       .  S
C2937      C2938   1.411       .  A
C2937     Br2945   1.932       .  S
C2938     Br2949   1.923       .  S
C2939      C2940   1.409       .  A
C2939      C2944   1.411       .  A
C2940      C2941   1.406       .  A
C2940     Br2951   1.931       .  S
C2941      C2942   1.415       .  A
C2941     Br2947   1.916       .  S
C2942      C2943   1.421       .  A
C2943      C2944   1.413       .  A
C2943     Br2952   1.914       .  S
C2944     Br2948   1.934       .  S
C2953      C2954   1.417       .  A
C2953      C2958   1.426       .  A
C2954      C2955   1.416       .  A
C2954     Br2966   1.921       .  S
C2955      C2956   1.410       .  A
C2955     Br2970   1.930       .  S
C2956      C2957   1.407       .  A
C2956      C2959   1.502       .  S
C2957      C2958   1.412       .  A
C2957     Br2965   1.932       .  S
C2958     Br2969   1.937       .  S
C2959      C2960   1.405       .  A
C2959      C2964   1.407       .  A
C2960      C2961   1.417       .  A
C2960     Br2971   1.934       .  S
C2961      C2962   1.433       .  A
C2961     Br2967   1.937       .  S
C2962      C2963   1.428       .  A
C2963      C2964   1.415       .  A
C2963     Br2972   1.935       .  S
C2964     Br2968   1.934       .  S
C2973      C2974   1.422       .  A
C2973      C2978   1.419       .  A
C2974      C2975   1.415       .  A
C2974     Br2986   1.934       .  S
C2975      C2976   1.409       .  A
C2975     Br2990   1.931       .  S
C2976      C2977   1.410       .  A
C2976      C2979   1.507       .  S
C2977      C2978   1.420       .  A
C2977     Br2985   1.929       .  S
C2978     Br2989   1.921       .  S
C2979      C2980   1.409       .  A
C2979      C2984   1.414       .  A
C2980      C2981   1.410       .  A
C2980     Br2991   1.933       .  S
C2981      C2982   1.422       .  A
C2981     Br2987   1.938       .  S
C2982      C2983   1.416       .  A
C2983      C2984   1.422       .  A
C2983     Br2992   1.925       .  S
C2984     Br2988   1.926       .  S
C2993      C2994   1.418       .  A
C2993      C2998   1.424       .  A
C2994      C2995   1.423       .  A
C2994     Br3006   1.919       .  S
C2995      C2996   1.413       .  A
C2995     Br3010   1.930       .  S
C2996      C2997   1.409       .  A
C2996      C2999   1.514       .  S
C2997      C2998   1.416       .  A
C2997     Br3005   1.930       .  S
C2998     Br3009   1.935       .  S
C2999      C3000   1.410       .  A
C2999      C3004   1.413       .  A
C3000      C3001   1.420       .  A
C3000     Br3011   1.931       .  S
C3001      C3002   1.425       .  A
C3001     Br3007   1.932       .  S
C3002      C3003   1.421       .  A
C3003      C3004   1.420       .  A
C3003     Br3012   1.931       .  S
C3004     Br3008   1.930       .  S
C3013      C3014   1.410       .  A
C3013      C3018   1.411       .  A
C3014      C3015   1.407       .  A
C3014     Br3026   1.930       .  S
C3015      C3016   1.412       .  A
C3015     Br3030   1.931       .  S
C3016      C3017   1.411       .  A
C3016      C3019   1.490       .  S
C3017      C3018   1.410       .  A
C3017     Br3025   1.930       .  S
C3018     Br3029   1.928       .  S
C3019      C3020   1.409       .  A
C3019      C3024   1.411       .  A
C3020      C3021   1.405       .  A
C3020     Br3031   1.933       .  S
C3021      C3022   1.416       .  A
C3021     Br3027   1.937       .  S
C3022      C3023   1.412       .  A
C3023      C3024   1.411       .  A
C3023     Br3032   1.927       .  S
C3024     Br3028   1.929       .  S
C3033      C3034   1.412       .  A
C3033      C3038   1.409       .  A
C3034      C3035   1.401       .  A
C3034     Br3046   1.922       .  S
C3035      C3036   1.406       .  A
C3035     Br3050   1.929       .  S
C3036      C3037   1.408       .  A
C3036      C3039   1.477       .  S
C3037      C3038   1.408       .  A
C3037     Br3045   1.925       .  S
C3038     Br3049   1.920       .  S
C3039      C3040   1.403       .  A
C3039      C3044   1.407       .  A
C3040      C3041   1.404       .  A
C3040     Br3051   1.929       .  S
C3041      C3042   1.415       .  A
C3041     Br3047   1.923       .  S
C3042      C3043   1.415       .  A
C3043      C3044   1.407       .  A
C3043     Br3052   1.921       .  S
C3044     Br3048   1.932       .  S
C3053      C3054   1.412       .  A
C3053      C3058   1.411       .  A
C3054      C3055   1.409       .  A
C3054     Br3066   1.930       .  S
C3055      C3056   1.411       .  A
C3055     Br3070   1.930       .  S
C3056      C3057   1.413       .  A
C3056      C3059   1.499       .  S
C3057      C3058   1.413       .  A
C3057     Br3065   1.927       .  S
C3058     Br3069   1.924       .  S
C3059      C3060   1.408       .  A
C3059      C3064   1.409       .  A
C3060      C3061   1.413       .  A
C3060     Br3071   1.933       .  S
C3061      C3062   1.425       .  A
C3061     Br3067   1.933       .  S
C3062      C3063   1.424       .  A
C3063      C3064   1.415       .  A
C3063     Br3072   1.933       .  S
C3064     Br3068   1.932       .  S
