geometry optimzed in LAMMPS
_audit_creation_date              2020-12-01 
_audit_creation_method            'lammps2cif' 
_symmetry_space_group_name_H-M    'P1' 
_symmetry_Int_Tables_number       1 
_symmetry_cell_setting            triclinic 
loop_ 
_symmetry_equiv_pos_as_xyz 
  x,y,z 
_cell_length_a                    35.99304026 
_cell_length_b                    36.18770933442837 
_cell_length_c                    34.60456981511027 
_cell_angle_alpha                 89.79338421837099 
_cell_angle_beta                  90.12337171937071 
_cell_angle_gamma                 121.24279542127408 
loop_ 
_atom_site_label 
_atom_site_type_symbol 
_atom_site_fract_x 
_atom_site_fract_y 
_atom_site_fract_z 
_atom_site_charge 
C1          C  0.33427083  0.16287839  0.01770302     0.30200
C2          C  0.33467463  0.16286719  0.43817437     0.30200
C3          C  0.35660341  0.14175886  0.99830995    -0.06000
C4          C  0.28956839  0.14134096  0.99799207    -0.06800
C5          C  0.35644758  0.20767812  0.99811099    -0.06700
C6          C  0.35649582  0.14109974  0.45824116    -0.06000
C7          C  0.28945651  0.14153550  0.45755842    -0.06800
C8          C  0.35741802  0.20813128  0.45766779    -0.06700
C9          C  0.37680214  0.11920594  0.44714407    -0.32000
N10         N  0.38942815  0.10756260  0.97964067     0.14500
C11         C  0.37759845  0.12140688  0.01091064    -0.32100
H12         H  0.38286365  0.11593326  0.04067351     0.16400
C13         C  0.24698543  0.12624794  0.44614862    -0.31000
N14         N  0.22197281  0.11524718  0.47827709     0.13200
C15         C  0.24763876  0.12582791  0.00983546    -0.31000
C16         C  0.37633181  0.25112725  0.44650018    -0.31300
N17         N  0.38578619  0.27568014  0.47876622     0.13700
H18         H  0.38201661  0.26375710  0.41733304     0.16300
C19         C  0.37296255  0.24956722  0.01013081    -0.31300
H20         H  0.37578245  0.26071083  0.03956343     0.16300
H21         H  0.23636460  0.12310293  0.03925784     0.16300
H22         H  0.38174822  0.11207911  0.41791531     0.16400
H23         H  0.23505917  0.12343645  0.41693427     0.16300
C24         C  0.33926213  0.17026699  0.18824106     0.30200
C25         C  0.33942340  0.16929927  0.26775205     0.30200
C26         C  0.36054055  0.14765664  0.20764322    -0.06000
C27         C  0.36131814  0.21501954  0.20816471    -0.06800
C28         C  0.29383937  0.14780388  0.20790570    -0.06700
C29         C  0.35991301  0.14682949  0.24767097    -0.06000
C30         C  0.36158208  0.21412158  0.24859647    -0.06800
C31         C  0.29429050  0.14795391  0.24838148    -0.06700
C32         C  0.37895441  0.12439420  0.25961498    -0.32000
N33         N  0.39201933  0.11238250  0.22794841     0.14500
C34         C  0.38126105  0.12641838  0.19585282    -0.32100
H35         H  0.38811256  0.12169712  0.16644628     0.16400
C36         C  0.37688741  0.25550858  0.26118960    -0.31000
N37         N  0.38726267  0.28172567  0.23010390     0.13200
C38         C  0.37631436  0.25749875  0.19754855    -0.31000
C39         C  0.25197702  0.13015684  0.26052262    -0.31300
N40         N  0.22580193  0.11770671  0.22913231     0.13700
H41         H  0.24058361  0.12610612  0.29002650     0.16300
C42         C  0.25061236  0.12849715  0.19680832    -0.31300
H43         H  0.23794494  0.12315093  0.16766823     0.16300
H44         H  0.37876497  0.26988174  0.16856794     0.16300
H45         H  0.38409370  0.11823703  0.28920412     0.16400
H46         H  0.37935141  0.26595267  0.29083758     0.16300
C47         C  0.16150851  0.33324523  0.06223010     0.30200
C48         C  0.16372485  0.33274635  0.48270449     0.30200
C49         C  0.14022217  0.35522581  0.04117507    -0.06000
C50         C  0.20736200  0.35576023  0.04354879    -0.06800
C51         C  0.14037692  0.28831516  0.04300125    -0.06700
C52         C  0.14100882  0.35461407  0.50091889    -0.06000
C53         C  0.20804214  0.35729655  0.50316203    -0.06800
C54         C  0.14120862  0.28869852  0.50273234    -0.06700
C55         C  0.12242775  0.37742901  0.48802032    -0.32000
N56         N  0.10997048  0.39112989  0.01901453     0.14500
C57         C  0.12108934  0.37841109  0.05174368    -0.32100
H58         H  0.11568616  0.38545838  0.08085001     0.16400
C59         C  0.25074647  0.38067037  0.49205064    -0.31000
N60         N  0.27597491  0.38894782  0.02362268     0.13200
C61         C  0.25024825  0.37384316  0.05539826    -0.31000
C62         C  0.12233560  0.24687064  0.49032945    -0.31300
N63         N  0.11043875  0.22084741  0.02168821     0.13700
H64         H  0.11740718  0.23601003  0.46062167     0.16300
C65         C  0.12163314  0.24540938  0.05407589    -0.31300
H66         H  0.11668378  0.23286002  0.08324070     0.16300
H67         H  0.26193877  0.37563297  0.08457113     0.16300
H68         H  0.11911938  0.38476968  0.45832823     0.16400
H69         H  0.26298285  0.38979557  0.46288558     0.16300
C70         C  0.16451813  0.33928651  0.23273678     0.30200
C71         C  0.16359538  0.33682722  0.31226377     0.30200
C72         C  0.14392576  0.36178566  0.25296477    -0.06000
C73         C  0.14056136  0.29414742  0.25143846    -0.06800
C74         C  0.20908063  0.35873742  0.25248164    -0.06700
C75         C  0.14371567  0.36141577  0.29322365    -0.06000
C76         C  0.14013012  0.29281946  0.29170643    -0.06800
C77         C  0.20919306  0.35955866  0.29289953    -0.06700
C78         C  0.12406603  0.38403302  0.30451507    -0.32000
N79         N  0.11183671  0.39648147  0.27224131     0.14500
C80         C  0.12399467  0.38331768  0.24076285    -0.32100
H81         H  0.11800755  0.38841605  0.21110560     0.16400
C82         C  0.12247377  0.25010380  0.30257459    -0.31000
N83         N  0.11214692  0.22605957  0.26996776     0.13200
C84         C  0.12357784  0.25242739  0.23883730    -0.31000
C85         C  0.25254015  0.38201579  0.30408762    -0.31300
N86         N  0.27744984  0.39098632  0.27202859     0.13700
H87         H  0.26526895  0.39151874  0.33305472     0.16300
C88         C  0.25131952  0.37594286  0.24067690    -0.31300
H89         H  0.26266864  0.37871741  0.21127500     0.16300
H90         H  0.12127318  0.24180766  0.20926162     0.16300
H91         H  0.11849190  0.39047500  0.33377140     0.16400
H92         H  0.11838831  0.23763551  0.33172525     0.16300
O93         O  0.44498238  0.01726738  0.02711030    -0.88200
C94         C  0.42862047  0.43281631  0.44165697     0.87900
Mg95       Mg  0.49385313  0.08427767  0.02638011     1.58100
O96         O  0.47791172  0.42377759  0.02627243    -0.87900
O97         O  0.42420099  0.46164491  0.06529120    -0.75200
C98         C  0.17577539  0.09317497  0.48028732     0.92900
O99         O  0.46288338  0.03595912  0.43569445    -0.75000
O100        O  0.15699170  0.11412455  0.47385461    -0.82500
Mg101      Mg  0.40616281  0.49148152  0.47531344     1.58000
C102        C  0.08903120  0.41547144  0.01613142     0.92900
O103        O  0.34356279  0.44692927  0.00795938    -0.80800
H104        H  0.47642537  0.41305828  0.08311157    -0.06100
C105        C  0.06255945  0.99744077  0.43985508     0.87800
O106        O  0.03892967  0.07307442  0.06483508    -0.75300
O107        O  0.42277971  0.44269740  0.47423032    -0.88100
O108        O  0.04999399  0.39641667  0.00375905    -0.80900
C109        C  0.41024170  0.32179900  0.48135580     0.93000
C110        C  0.32199969  0.40857972  0.02116942     0.92800
Mg111      Mg  0.09178435  0.00661464  0.02389278     1.58000
O112        O  0.15540627  0.05416764  0.49236447    -0.80800
O113        O  0.03493280  0.46071850  0.06320975    -0.75000
O114        O  0.39174648  0.34091151  0.49517126    -0.80900
O115        O  0.38787121  0.04267522  0.47527791    -0.82600
O116        O  0.10426034  0.15578715  0.00540149    -0.80900
C117        C  0.99551602  0.43120276  0.05832493     0.87300
O118        O  0.07399875  0.05450863  0.02574767    -0.88100
O119        O  0.05260678  0.48047805  0.47219126    -0.88200
O120        O  0.07337315  0.03648809  0.43451216    -0.75200
Mg121      Mg  0.41053100  0.40479857  0.02643620     1.58000
O122        O  0.45072714  0.34172893  0.47380424    -0.82600
H123        H  0.43717075  0.02022756  0.08395285    -0.06300
O124        O  0.01898376  0.07321446  0.47351377    -0.87900
H125        H  0.02166005  0.08378966  0.41657496    -0.06100
H126        H  0.08657392  0.06270595  0.08238562    -0.06300
C127        C  0.50204582  0.06570867  0.44115507     0.87200
C128        C  0.43504687  0.50062355  0.05956901     0.87800
C129        C  0.06790009  0.06391872  0.05842127     0.87900
H130        H  0.06069728  0.47815783  0.41530010    -0.06300
O131        O  0.45764912  0.42372474  0.43525899    -0.75300
Mg132      Mg  0.08599826  0.09286778  0.47383053     1.58000
H133        H  0.40969774  0.43362716  0.41771486    -0.06300
C134        C  0.40994948  0.08294182  0.48232481     0.92900
O135        O  0.04547811  0.15515673  0.02654898    -0.82600
C136        C  0.08588687  0.17490253  0.01917428     0.92900
O137        O  0.33916277  0.38587144  0.02732821    -0.82500
Mg138      Mg  0.00325398  0.41294987  0.47338541     1.58200
O139        O  0.44844174  0.10140560  0.49565338    -0.80900
O140        O  0.11099122  0.45590448  0.02266815    -0.82600
O141        O  0.02053548  0.45057377  0.22421418    -0.88200
C142        C  0.43607751  0.43626429  0.30981081     0.87900
Mg143      Mg  0.08832855  0.50004184  0.22489118     1.58100
O144        O  0.42601815  0.48267948  0.22365206    -0.87900
O145        O  0.46417342  0.42893875  0.18646238    -0.75200
C146        C  0.09234485  0.18036375  0.26704640     0.92900
O147        O  0.03994972  0.47025446  0.31498508    -0.75000
O148        O  0.11485974  0.16321845  0.27397776    -0.82500
Mg149      Mg  0.49444159  0.41260572  0.27656755     1.58000
C150        C  0.41621293  0.09141916  0.23008730     0.92900
O151        O  0.44726686  0.34848219  0.24573020    -0.80800
H152        H  0.41466158  0.47866973  0.16680940    -0.06100
C153        C  0.99916604  0.06873892  0.30793751     0.87800
O154        O  0.07696129  0.04379035  0.18497706    -0.75300
O155        O  0.44557171  0.42943288  0.27743073    -0.88100
O156        O  0.39745440  0.05324815  0.24385335    -0.80900
C157        C  0.32373587  0.41608552  0.26948528     0.93000
C158        C  0.40837175  0.32761982  0.23290730     0.92800
Mg159      Mg  0.00810683  0.09520375  0.22296178     1.58000
O160        O  0.05378090  0.15887052  0.25382238    -0.80800
O161        O  0.46288720  0.03761891  0.18468330    -0.75000
O162        O  0.34347902  0.39798348  0.25647380    -0.80900
O163        O  0.04637706  0.39468801  0.27636898    -0.82600
O164        O  0.15972589  0.11132517  0.24400412    -0.80900
C165        C  0.43311264  0.99876720  0.19095986     0.87300
O166        O  0.05721678  0.07883524  0.22268199    -0.88100
O167        O  0.48225802  0.05783695  0.27565763    -0.88200
O168        O  0.03846473  0.07995439  0.31363853    -0.75200
Mg169      Mg  0.40709499  0.41622495  0.22528614     1.58000
O170        O  0.34319162  0.45644401  0.27622695    -0.82600
H171        H  0.02302025  0.44182508  0.16749209    -0.06300
O172        O  0.07674205  0.02598419  0.27674286    -0.87900
H173        H  0.08746975  0.02919139  0.33367731    -0.06100
H174        H  0.06608842  0.09041690  0.16590649    -0.06300
C175        C  0.06938045  0.50940641  0.30925169     0.87200
C176        C  0.50351354  0.44010108  0.19193428     0.87800
C177        C  0.06724386  0.07239240  0.19039444     0.87900
H178        H  0.47955106  0.06722348  0.33221041    -0.06300
O179        O  0.42653060  0.46498833  0.31528254    -0.75300
Mg180      Mg  0.09555827  0.09267429  0.27496980     1.58000
H181        H  0.43754336  0.41845240  0.33432859    -0.06300
C182        C  0.08707299  0.41697381  0.26990329     0.92900
O183        O  0.15985178  0.05250752  0.22504153    -0.82600
C184        C  0.17944347  0.09294627  0.23151336     0.92900
O185        O  0.38673336  0.34565433  0.22605786    -0.82500
Mg186      Mg  0.41474808  0.00865428  0.27565073     1.58200
O187        O  0.10580444  0.45556460  0.25709390    -0.80900
O188        O  0.45660462  0.11306827  0.22253662    -0.82600
C189        C  0.16133125  0.33219806  0.35639158    -0.05900
C190        C  0.19375730  0.32888499  0.37594899    -0.17100
C191        C  0.19373206  0.32491966  0.41616733     0.11300
C192        C  0.16294888  0.32923298  0.43839850    -0.05900
C193        C  0.12570470  0.32237856  0.41851978    -0.17100
C194        C  0.12361220  0.32161912  0.37798239     0.11300
S195        S  0.22931978  0.30746679  0.43459331    -0.32100
S196        S  0.07115723  0.30076348  0.35514490    -0.32100
H197        H  0.04685875  0.29450395  0.38890347     0.29300
H198        H  0.20726315  0.28877459  0.46907788     0.29300
H199        H  0.21736613  0.32545201  0.35968920     0.19900
H200        H  0.09721452  0.31536003  0.43484658     0.19900
C201        C  0.16288999  0.34139308  0.18843231    -0.05900
C202        C  0.12547136  0.30932433  0.16926557    -0.17100
C203        C  0.12242557  0.30699069  0.12894155     0.11300
C204        C  0.15930710  0.33570366  0.10634177    -0.05900
C205        C  0.19227396  0.37268473  0.12526633    -0.17100
C206        C  0.19345495  0.37696374  0.16551758     0.11300
S207        S  0.06893566  0.26950538  0.10998403    -0.32100
S208        S  0.23150935  0.43052982  0.18358381    -0.32100
H209        H  0.20993015  0.42782519  0.21798742     0.29300
H210        H  0.07225476  0.29213596  0.07605224     0.29300
H211        H  0.09711822  0.28686193  0.18584924     0.19900
H212        H  0.21615629  0.39996585  0.10846427     0.19900
C213        C  0.33652673  0.16139354  0.39401587    -0.05900
C214        C  0.37389727  0.19391243  0.37515063    -0.17100
C215        C  0.37760893  0.19600863  0.33486548     0.11300
C216        C  0.34115758  0.16693309  0.31197028    -0.05900
C217        C  0.30828137  0.12978609  0.33080178    -0.17100
C218        C  0.30644498  0.12570101  0.37107275     0.11300
S219        S  0.43151645  0.23322583  0.31646491    -0.32100
S220        S  0.26793802  0.07231630  0.38936144    -0.32100
H221        H  0.29086830  0.07423643  0.42274278     0.29300
H222        H  0.42857404  0.21026387  0.28300266     0.29300
H223        H  0.40182773  0.21665604  0.39198025     0.19900
H224        H  0.28496854  0.10231787  0.31393290     0.19900
C225        C  0.34055271  0.16837959  0.14406940    -0.05900
C226        C  0.30803454  0.13084006  0.12552919    -0.17100
C227        C  0.30632552  0.12628776  0.08532837     0.11300
C228        C  0.33612470  0.16185369  0.06201755    -0.05900
C229        C  0.37327566  0.19488048  0.08076854    -0.17100
C230        C  0.37671394  0.19777646  0.12105941     0.11300
S231        S  0.26863076  0.07243924  0.06771918    -0.32100
S232        S  0.42997293  0.23670704  0.13953683    -0.32100
H233        H  0.42851204  0.21312161  0.17225992     0.29300
H234        H  0.29148456  0.07461916  0.03429228     0.29300
H235        H  0.28504976  0.10331933  0.14262219     0.19900
H236        H  0.40121381  0.21762019  0.06388916     0.19900
C237        C  0.33427073  0.16287833  0.51770299     0.30200
C238        C  0.33467469  0.16286721  0.93817440     0.30200
C239        C  0.35660330  0.14175881  0.49830988    -0.06000
C240        C  0.28956830  0.14134092  0.49799205    -0.06800
C241        C  0.35644751  0.20767808  0.49811100    -0.06700
C242        C  0.35649586  0.14109978  0.95824123    -0.06000
C243        C  0.28945659  0.14153557  0.95755844    -0.06800
C244        C  0.35741803  0.20813132  0.95766777    -0.06700
C245        C  0.37680211  0.11920596  0.94714409    -0.32000
N246        N  0.38942819  0.10756263  0.47964067     0.14500
C247        C  0.37759840  0.12140690  0.51091060    -0.32100
H248        H  0.38286353  0.11593336  0.54067352     0.16400
C249        C  0.24698552  0.12624801  0.94614861    -0.31000
N250        N  0.22197287  0.11524721  0.97827707     0.13200
C251        C  0.24763869  0.12582795  0.50983548    -0.31000
C252        C  0.37633174  0.25112730  0.94650017    -0.31300
N253        N  0.38578613  0.27568014  0.97876623     0.13700
H254        H  0.38201658  0.26375719  0.91733301     0.16300
C255        C  0.37296265  0.24956725  0.51013082    -0.31300
H256        H  0.37578264  0.26071090  0.53956339     0.16300
H257        H  0.23636453  0.12310307  0.53925787     0.16300
H258        H  0.38174814  0.11207919  0.91791535     0.16400
H259        H  0.23505925  0.12343646  0.91693422     0.16300
C260        C  0.33926217  0.17026699  0.68824108     0.30200
C261        C  0.33942343  0.16929930  0.76775209     0.30200
C262        C  0.36054060  0.14765666  0.70764326    -0.06000
C263        C  0.36131823  0.21501953  0.70816472    -0.06800
C264        C  0.29383941  0.14780384  0.70790575    -0.06700
C265        C  0.35991302  0.14682948  0.74767103    -0.06000
C266        C  0.36158220  0.21412161  0.74859648    -0.06800
C267        C  0.29429052  0.14795394  0.74838152    -0.06700
C268        C  0.37895438  0.12439416  0.75961501    -0.32000
N269        N  0.39201921  0.11238236  0.72794848     0.14500
C270        C  0.38126113  0.12641841  0.69585286    -0.32100
H271        H  0.38811272  0.12169726  0.66644646     0.16400
C272        C  0.37688736  0.25550861  0.76118959    -0.31000
N273        N  0.38726260  0.28172567  0.73010386     0.13200
C274        C  0.37631433  0.25749874  0.69754851    -0.31000
C275        C  0.25197701  0.13015678  0.76052270    -0.31300
N276        N  0.22580195  0.11770665  0.72913232     0.13700
H277        H  0.24058365  0.12610602  0.79002626     0.16300
C278        C  0.25061239  0.12849702  0.69680835    -0.31300
H279        H  0.23794493  0.12315067  0.66766825     0.16300
H280        H  0.37876490  0.26988163  0.66856801     0.16300
H281        H  0.38409378  0.11823705  0.78920434     0.16400
H282        H  0.37935128  0.26595268  0.79083746     0.16300
C283        C  0.16150847  0.33324532  0.56223011     0.30200
C284        C  0.16372487  0.33274632  0.98270447     0.30200
C285        C  0.14022209  0.35522582  0.54117508    -0.06000
C286        C  0.20736198  0.35576035  0.54354884    -0.06800
C287        C  0.14037686  0.28831522  0.54300129    -0.06700
C288        C  0.14100893  0.35461414  0.00091888    -0.06000
C289        C  0.20804215  0.35729648  0.00316198    -0.06800
C290        C  0.14120863  0.28869848  0.00273231    -0.06700
C291        C  0.12242779  0.37742906  0.98802031    -0.32000
N292        N  0.10997048  0.39112992  0.51901447     0.14500
C293        C  0.12108934  0.37841117  0.55174365    -0.32100
H294        H  0.11568616  0.38545851  0.58084997     0.16400
C295        C  0.25074645  0.38067044  0.99205059    -0.31000
N296        N  0.27597493  0.38894785  0.52362278     0.13200
C297        C  0.25024821  0.37384326  0.55539826    -0.31000
C298        C  0.12233556  0.24687058  0.99032940    -0.31300
N299        N  0.11043870  0.22084745  0.52168825     0.13700
H300        H  0.11740706  0.23600997  0.96062165     0.16300
C301        C  0.12163306  0.24540946  0.55407587    -0.31300
H302        H  0.11668368  0.23285999  0.58324098     0.16300
H303        H  0.26193882  0.37563307  0.58457150     0.16300
H304        H  0.11911939  0.38476969  0.95832848     0.16400
H305        H  0.26298284  0.38979579  0.96288546     0.16300
C306        C  0.16451818  0.33928650  0.73273678     0.30200
C307        C  0.16359550  0.33682733  0.81226375     0.30200
C308        C  0.14392588  0.36178573  0.75296477    -0.06000
C309        C  0.14056141  0.29414746  0.75143848    -0.06800
C310        C  0.20908070  0.35873737  0.75248160    -0.06700
C311        C  0.14371584  0.36141591  0.79322365    -0.06000
C312        C  0.14013016  0.29281956  0.79170645    -0.06800
C313        C  0.20919317  0.35955868  0.79289950    -0.06700
C314        C  0.12406610  0.38403310  0.80451504    -0.32000
N315        N  0.11183673  0.39648146  0.77224125     0.14500
C316        C  0.12399470  0.38331762  0.74076283    -0.32100
H317        H  0.11800749  0.38841588  0.71110547     0.16400
C318        C  0.12247375  0.25010392  0.80257461    -0.31000
N319        N  0.11214684  0.22605965  0.76996783     0.13200
C320        C  0.12357778  0.25242742  0.73883732    -0.31000
C321        C  0.25254025  0.38201590  0.80408759    -0.31300
N322        N  0.27744987  0.39098643  0.77202852     0.13700
H323        H  0.26526907  0.39151886  0.83305460     0.16300
C324        C  0.25131958  0.37594289  0.74067683    -0.31300
H325        H  0.26266866  0.37871740  0.71127496     0.16300
H326        H  0.12127309  0.24180766  0.70926172     0.16300
H327        H  0.11849193  0.39047508  0.83377127     0.16400
H328        H  0.11838836  0.23763565  0.83172537     0.16300
O329        O  0.44498236  0.01726742  0.52711031    -0.88200
C330        C  0.42862052  0.43281625  0.94165691     0.87900
Mg331      Mg  0.49385316  0.08427771  0.52638007     1.58100
O332        O  0.47791171  0.42377775  0.52627245    -0.87900
O333        O  0.42420099  0.46164506  0.56529134    -0.75200
C334        C  0.17577544  0.09317492  0.98028730     0.92900
O335        O  0.46288325  0.03595904  0.93569439    -0.75000
O336        O  0.15699166  0.11412442  0.97385459    -0.82500
Mg337      Mg  0.40616288  0.49148151  0.97531343     1.58000
C338        C  0.08903123  0.41547148  0.51613135     0.92900
O339        O  0.34356282  0.44692923  0.50795933    -0.80800
H340        H  0.47642544  0.41305843  0.58311159    -0.06100
C341        C  0.06255954  0.99744078  0.93985503     0.87800
O342        O  0.03892987  0.07307455  0.56483524    -0.75300
O343        O  0.42277977  0.44269733  0.97423026    -0.88100
O344        O  0.04999401  0.39641676  0.50375904    -0.80900
C345        C  0.41024168  0.32179899  0.98135590     0.93000
C346        C  0.32199973  0.40857973  0.52116946     0.92800
Mg347      Mg  0.09178430  0.00661467  0.52389285     1.58000
O348        O  0.15540638  0.05416756  0.99236441    -0.80800
O349        O  0.03493290  0.46071851  0.56320968    -0.75000
O350        O  0.39174642  0.34091147  0.99517128    -0.80900
O351        O  0.38787120  0.04267524  0.97527786    -0.82600
O352        O  0.10426050  0.15578726  0.50540147    -0.80900
C353        C  0.99551604  0.43120288  0.55832492     0.87300
O354        O  0.07399859  0.05450853  0.52574764    -0.88100
O355        O  0.05260678  0.48047811  0.97219123    -0.88200
O356        O  0.07337331  0.03648815  0.93451217    -0.75200
Mg357      Mg  0.41053098  0.40479866  0.52643629     1.58000
O358        O  0.45072715  0.34172891  0.97380442    -0.82600
H359        H  0.43717104  0.02022781  0.58395295    -0.06300
O360        O  0.01898369  0.07321453  0.97351370    -0.87900
H361        H  0.02165984  0.08378966  0.91657491    -0.06100
H362        H  0.08657430  0.06270617  0.58238549    -0.06300
C363        C  0.50204569  0.06570864  0.94115506     0.87200
C364        C  0.43504696  0.50062370  0.55956904     0.87800
C365        C  0.06790024  0.06391880  0.55842126     0.87900
H366        H  0.06069759  0.47815804  0.91530011    -0.06300
O367        O  0.45764911  0.42372458  0.93525894    -0.75300
Mg368      Mg  0.08599823  0.09286780  0.97383050     1.58000
H369        H  0.40969791  0.43362719  0.91771482    -0.06300
C370        C  0.40994943  0.08294181  0.98232480     0.92900
O371        O  0.04547817  0.15515666  0.52654894    -0.82600
C372        C  0.08588693  0.17490256  0.51917427     0.92900
O373        O  0.33916278  0.38587143  0.52732827    -0.82500
Mg374      Mg  0.00325401  0.41294979  0.97338541     1.58200
O375        O  0.44844164  0.10140555  0.99565356    -0.80900
O376        O  0.11099132  0.45590451  0.52266809    -0.82600
O377        O  0.02053536  0.45057361  0.72421417    -0.88200
C378        C  0.43607747  0.43626429  0.80981083     0.87900
Mg379      Mg  0.08832851  0.50004175  0.72489124     1.58100
O380        O  0.42601821  0.48267945  0.72365201    -0.87900
O381        O  0.46417341  0.42893874  0.68646232    -0.75200
C382        C  0.09234478  0.18036384  0.76704647     0.92900
O383        O  0.03994959  0.47025445  0.81498513    -0.75000
O384        O  0.11485965  0.16321853  0.77397793    -0.82500
Mg385      Mg  0.49444156  0.41260574  0.77656762     1.58000
C386        C  0.41621286  0.09141908  0.73008736     0.92900
O387        O  0.44726688  0.34848218  0.74573016    -0.80800
H388        H  0.41466167  0.47866978  0.66680928    -0.06100
C389        C  0.99916586  0.06873874  0.80793747     0.87800
O390        O  0.07696115  0.04379014  0.68497708    -0.75300
O391        O  0.44557176  0.42943302  0.77743073    -0.88100
O392        O  0.39745439  0.05324805  0.74385336    -0.80900
C393        C  0.32373587  0.41608550  0.76948522     0.93000
C394        C  0.40837177  0.32761982  0.73290726     0.92800
Mg395      Mg  0.00810677  0.09520379  0.72296177     1.58000
O396        O  0.05378089  0.15887062  0.75382233    -0.80800
O397        O  0.46288713  0.03761901  0.68468327    -0.75000
O398        O  0.34347889  0.39798332  0.75647374    -0.80900
O399        O  0.04637706  0.39468801  0.77636903    -0.82600
O400        O  0.15972591  0.11132515  0.74400406    -0.80900
C401        C  0.43311258  0.99876729  0.69095981     0.87300
O402        O  0.05721667  0.07883513  0.72268194    -0.88100
O403        O  0.48225794  0.05783686  0.77565757    -0.88200
O404        O  0.03846455  0.07995424  0.81363850    -0.75200
Mg405      Mg  0.40709494  0.41622487  0.72528611     1.58000
O406        O  0.34319170  0.45644397  0.77622691    -0.82600
H407        H  0.02302008  0.44182490  0.66749208    -0.06300
O408        O  0.07674195  0.02598417  0.77674282    -0.87900
H409        H  0.08746993  0.02919139  0.83367704    -0.06100
H410        H  0.06608856  0.09041695  0.66590636    -0.06300
C411        C  0.06938032  0.50940631  0.80925162     0.87200
C412        C  0.50351349  0.44010097  0.69193428     0.87800
C413        C  0.06724382  0.07239225  0.69039444     0.87900
H414        H  0.47955082  0.06722320  0.83221036    -0.06300
O415        O  0.42653044  0.46498822  0.81528264    -0.75300
Mg416      Mg  0.09555819  0.09267429  0.77496978     1.58000
H417        H  0.43754331  0.41845226  0.83432858    -0.06300
C418        C  0.08707297  0.41697378  0.76990325     0.92900
O419        O  0.15985183  0.05250742  0.72504175    -0.82600
C420        C  0.17944351  0.09294620  0.73151340     0.92900
O421        O  0.38673338  0.34565434  0.72605786    -0.82500
Mg422      Mg  0.41474812  0.00865426  0.77565074     1.58200
O423        O  0.10580440  0.45556455  0.75709386    -0.80900
O424        O  0.45660456  0.11306827  0.72253675    -0.82600
C425        C  0.16133135  0.33219815  0.85639155    -0.05900
C426        C  0.19375747  0.32888511  0.87594894    -0.17100
C427        C  0.19373211  0.32491972  0.91616730     0.11300
C428        C  0.16294889  0.32923294  0.93839847    -0.05900
C429        C  0.12570479  0.32237866  0.91851975    -0.17100
C430        C  0.12361229  0.32161922  0.87798238     0.11300
S431        S  0.22931979  0.30746688  0.93459328    -0.32100
S432        S  0.07115723  0.30076362  0.85514508    -0.32100
H433        H  0.04685874  0.29450375  0.88890373     0.29300
H434        H  0.20726317  0.28877465  0.96907785     0.29300
H435        H  0.21736617  0.32545219  0.85968931     0.19900
H436        H  0.09721471  0.31536027  0.93484653     0.19900
C437        C  0.16288994  0.34139304  0.68843230    -0.05900
C438        C  0.12547124  0.30932419  0.66926558    -0.17100
C439        C  0.12242550  0.30699063  0.62894153     0.11300
C440        C  0.15930701  0.33570371  0.60634179    -0.05900
C441        C  0.19227390  0.37268484  0.62526636    -0.17100
C442        C  0.19345484  0.37696375  0.66551762     0.11300
S443        S  0.06893556  0.26950526  0.60998400    -0.32100
S444        S  0.23150927  0.43052989  0.68358380    -0.32100
H445        H  0.20993015  0.42782532  0.71798745     0.29300
H446        H  0.07225460  0.29213592  0.57605228     0.29300
H447        H  0.09711837  0.28686196  0.68584906     0.19900
H448        H  0.21615608  0.39996582  0.60846448     0.19900
C449        C  0.33652677  0.16139343  0.89401590    -0.05900
C450        C  0.37389733  0.19391230  0.87515066    -0.17100
C451        C  0.37760891  0.19600868  0.83486551     0.11300
C452        C  0.34115755  0.16693317  0.81197032    -0.05900
C453        C  0.30828129  0.12978614  0.83080179    -0.17100
C454        C  0.30644487  0.12570098  0.87107276     0.11300
S455        S  0.43151640  0.23322594  0.81646488    -0.32100
S456        S  0.26793787  0.07231619  0.88936138    -0.32100
H457        H  0.29086824  0.07423631  0.92274267     0.29300
H458        H  0.42857412  0.21026370  0.78300287     0.29300
H459        H  0.40182781  0.21665587  0.89198029     0.19900
H460        H  0.28496859  0.10231800  0.81393295     0.19900
C461        C  0.34055272  0.16837967  0.64406939    -0.05900
C462        C  0.30803452  0.13084013  0.62552916    -0.17100
C463        C  0.30632552  0.12628771  0.58532835     0.11300
C464        C  0.33612465  0.16185366  0.56201752    -0.05900
C465        C  0.37327558  0.19488052  0.58076851    -0.17100
C466        C  0.37671394  0.19777658  0.62105938     0.11300
S467        S  0.26863063  0.07243915  0.56771916    -0.32100
S468        S  0.42997306  0.23670709  0.63953677    -0.32100
H469        H  0.42851208  0.21312174  0.67225995     0.29300
H470        H  0.29148449  0.07461900  0.53429232     0.29300
H471        H  0.28504976  0.10331942  0.64262216     0.19900
H472        H  0.40121379  0.21762025  0.56388906     0.19900
C473        C  0.33427084  0.66287838  0.01770303     0.30200
C474        C  0.33467467  0.66286729  0.43817436     0.30200
C475        C  0.35660348  0.64175891  0.99830994    -0.06000
C476        C  0.28956837  0.64134094  0.99799209    -0.06800
C477        C  0.35644763  0.70767810  0.99811099    -0.06700
C478        C  0.35649574  0.64109972  0.45824116    -0.06000
C479        C  0.28945658  0.64153569  0.45755839    -0.06800
C480        C  0.35741803  0.70813140  0.45766775    -0.06700
C481        C  0.37680202  0.61920588  0.44714405    -0.32000
N482        N  0.38942813  0.60756256  0.97964068     0.14500
C483        C  0.37759858  0.62140699  0.01091063    -0.32100
H484        H  0.38286388  0.61593351  0.04067356     0.16400
C485        C  0.24698555  0.62624817  0.44614865    -0.31000
N486        N  0.22197292  0.61524734  0.47827707     0.13200
C487        C  0.24763870  0.62582792  0.00983546    -0.31000
C488        C  0.37633172  0.75112737  0.44650021    -0.31300
N489        N  0.38578621  0.77568022  0.47876623     0.13700
H490        H  0.38201649  0.76375735  0.41733293     0.16300
C491        C  0.37296261  0.74956721  0.01013081    -0.31300
H492        H  0.37578251  0.76071081  0.03956342     0.16300
H493        H  0.23636453  0.62310298  0.03925782     0.16300
H494        H  0.38174810  0.61207910  0.41791535     0.16400
H495        H  0.23505918  0.62343663  0.41693404     0.16300
C496        C  0.33926215  0.67026700  0.18824106     0.30200
C497        C  0.33942343  0.66929930  0.26775206     0.30200
C498        C  0.36054059  0.64765668  0.20764323    -0.06000
C499        C  0.36131821  0.71501953  0.20816468    -0.06800
C500        C  0.29383937  0.64780387  0.20790571    -0.06700
C501        C  0.35991302  0.64682950  0.24767099    -0.06000
C502        C  0.36158213  0.71412160  0.24859645    -0.06800
C503        C  0.29429049  0.64795392  0.24838150    -0.06700
C504        C  0.37895437  0.62439415  0.25961498    -0.32000
N505        N  0.39201921  0.61238240  0.22794840     0.14500
C506        C  0.38126117  0.62641852  0.19585282    -0.32100
H507        H  0.38811285  0.62169742  0.16644628     0.16400
C508        C  0.37688732  0.75550856  0.26118948    -0.31000
N509        N  0.38726267  0.78172566  0.23010384     0.13200
C510        C  0.37631444  0.75749874  0.19754848    -0.31000
C511        C  0.25197699  0.63015686  0.26052262    -0.31300
N512        N  0.22580190  0.61770670  0.22913229     0.13700
H513        H  0.24058354  0.62610612  0.29002649     0.16300
C514        C  0.25061235  0.62849712  0.19680831    -0.31300
H515        H  0.23794490  0.62315080  0.16766821     0.16300
H516        H  0.37876506  0.76988169  0.16856786     0.16300
H517        H  0.38409368  0.61823698  0.28920412     0.16400
H518        H  0.37935125  0.76595275  0.29083774     0.16300
C519        C  0.16150846  0.83324527  0.06223010     0.30200
C520        C  0.16372492  0.83274638  0.48270450     0.30200
C521        C  0.14022224  0.85522594  0.04117508    -0.06000
C522        C  0.20736198  0.85576023  0.04354880    -0.06800
C523        C  0.14037677  0.78831517  0.04300125    -0.06700
C524        C  0.14100896  0.85461418  0.50091889    -0.06000
C525        C  0.20804219  0.85729652  0.50316204    -0.06800
C526        C  0.14120867  0.78869853  0.50273233    -0.06700
C527        C  0.12242778  0.87742902  0.48802035    -0.32000
N528        N  0.10997055  0.89112997  0.01901451     0.14500
C529        C  0.12108949  0.87841129  0.05174368    -0.32100
H530        H  0.11568629  0.88545858  0.08085003     0.16400
C531        C  0.25074651  0.88067038  0.49205064    -0.31000
N532        N  0.27597492  0.88894778  0.02362267     0.13200
C533        C  0.25024827  0.87384327  0.05539826    -0.31000
C534        C  0.12233567  0.74687063  0.49032945    -0.31300
N535        N  0.11043881  0.72084743  0.02168820     0.13700
H536        H  0.11740725  0.73601003  0.46062166     0.16300
C537        C  0.12163313  0.74540939  0.05407589    -0.31300
H538        H  0.11668380  0.73286006  0.08324069     0.16300
H539        H  0.26193880  0.87563321  0.08457114     0.16300
H540        H  0.11911934  0.88476967  0.45832819     0.16400
H541        H  0.26298288  0.88979563  0.46288564     0.16300
C542        C  0.16451814  0.83928650  0.23273678     0.30200
C543        C  0.16359544  0.83682728  0.31226377     0.30200
C544        C  0.14392577  0.86178565  0.25296478    -0.06000
C545        C  0.14056140  0.79414743  0.25143846    -0.06800
C546        C  0.20908064  0.85873741  0.25248164    -0.06700
C547        C  0.14371569  0.86141578  0.29322365    -0.06000
C548        C  0.14013017  0.79281950  0.29170642    -0.06800
C549        C  0.20919310  0.85955873  0.29289953    -0.06700
C550        C  0.12406595  0.88403297  0.30451508    -0.32000
N551        N  0.11183670  0.89648146  0.27224129     0.14500
C552        C  0.12399471  0.88331767  0.24076286    -0.32100
H553        H  0.11800763  0.88841606  0.21110550     0.16400
C554        C  0.12247365  0.75010380  0.30257454    -0.31000
N555        N  0.11214680  0.72605958  0.26996774     0.13200
C556        C  0.12357771  0.75242736  0.23883721    -0.31000
C557        C  0.25254020  0.88201591  0.30408762    -0.31300
N558        N  0.27744984  0.89098636  0.27202856     0.13700
H559        H  0.26526898  0.89151886  0.33305463     0.16300
C560        C  0.25131950  0.87594282  0.24067689    -0.31300
H561        H  0.26266855  0.87871725  0.21127500     0.16300
H562        H  0.12127307  0.74180773  0.20926179     0.16300
H563        H  0.11849177  0.89047490  0.33377131     0.16400
H564        H  0.11838819  0.73763551  0.33172524     0.16300
O565        O  0.44498242  0.51726736  0.02711029    -0.88200
C566        C  0.42862053  0.93281627  0.44165695     0.87900
Mg567      Mg  0.49385309  0.58427766  0.02638013     1.58100
O568        O  0.47791181  0.92377776  0.02627241    -0.87900
O569        O  0.42420083  0.96164490  0.06529119    -0.75200
C570        C  0.17577548  0.59317506  0.48028733     0.92900
O571        O  0.46288335  0.53595908  0.43569445    -0.75000
O572        O  0.15699172  0.61412457  0.47385460    -0.82500
Mg573      Mg  0.40616283  0.99148152  0.47531343     1.58000
C574        C  0.08903127  0.91547148  0.01613134     0.92900
O575        O  0.34356280  0.94692923  0.00795940    -0.80800
H576        H  0.47642542  0.91305821  0.08311149    -0.06100
C577        C  0.06255938  0.49744071  0.43985508     0.87800
O578        O  0.03892968  0.57307440  0.06483530    -0.75300
O579        O  0.42277977  0.94269738  0.47423028    -0.88100
O580        O  0.04999401  0.89641668  0.00375907    -0.80900
C581        C  0.41024169  0.82179907  0.48135580     0.93000
C582        C  0.32199972  0.90857967  0.02116942     0.92800
Mg583      Mg  0.09178423  0.50661469  0.02389286     1.58000
O584        O  0.15540642  0.55416770  0.49236444    -0.80800
O585        O  0.03493293  0.96071845  0.06320963    -0.75000
O586        O  0.39174644  0.84091154  0.49517125    -0.80900
O587        O  0.38787119  0.54267527  0.47527794    -0.82600
O588        O  0.10426037  0.65578714  0.00540153    -0.80900
C589        C  0.99551611  0.93120280  0.05832485     0.87300
O590        O  0.07399858  0.55450859  0.02574769    -0.88100
O591        O  0.05260687  0.98047812  0.47219127    -0.88200
O592        O  0.07337315  0.53648805  0.43451220    -0.75200
Mg593      Mg  0.41053102  0.90479858  0.02643620     1.58000
O594        O  0.45072713  0.84172902  0.47380421    -0.82600
H595        H  0.43717085  0.52022755  0.08395285    -0.06300
O596        O  0.01898371  0.57321440  0.47351377    -0.87900
H597        H  0.02166003  0.58378988  0.41657491    -0.06100
H598        H  0.08657405  0.56270595  0.08238558    -0.06300
C599        C  0.50204573  0.56570867  0.44115510     0.87200
C600        C  0.43504678  0.00062357  0.05956901     0.87800
C601        C  0.06790009  0.56391871  0.05842132     0.87900
H602        H  0.06069734  0.97815790  0.41530012    -0.06300
O603        O  0.45764918  0.92372471  0.43525899    -0.75300
Mg604      Mg  0.08599821  0.59286777  0.47383051     1.58000
H605        H  0.40969780  0.93362710  0.41771484    -0.06300
C606        C  0.40994945  0.58294186  0.48232484     0.92900
O607        O  0.04547812  0.65515674  0.02654898    -0.82600
C608        C  0.08588687  0.67490252  0.01917427     0.92900
O609        O  0.33916281  0.88587138  0.02732821    -0.82500
Mg610      Mg  0.00325403  0.91294989  0.47338544     1.58200
O611        O  0.44844169  0.60140561  0.49565352    -0.80900
O612        O  0.11099135  0.95590454  0.02266791    -0.82600
O613        O  0.02053537  0.95057377  0.22421416    -0.88200
C614        C  0.43607766  0.93626441  0.30981080     0.87900
Mg615      Mg  0.08832857  0.00004185  0.22489117     1.58100
O616        O  0.42601820  0.98267947  0.22365207    -0.87900
O617        O  0.46417340  0.92893870  0.18646241    -0.75200
C618        C  0.09234485  0.68036376  0.26704638     0.92900
O619        O  0.03994954  0.97025438  0.31498507    -0.75000
O620        O  0.11485983  0.66321856  0.27397775    -0.82500
Mg621      Mg  0.49444158  0.91260568  0.27656755     1.58000
C622        C  0.41621283  0.59141912  0.23008729     0.92900
O623        O  0.44726685  0.84848217  0.24573017    -0.80800
H624        H  0.41466167  0.97866976  0.16680940    -0.06100
C625        C  0.99916612  0.56873890  0.30793745     0.87800
O626        O  0.07696112  0.54379028  0.18497708    -0.75300
O627        O  0.44557176  0.92943287  0.27743074    -0.88100
O628        O  0.39745437  0.55324811  0.24385336    -0.80900
C629        C  0.32373586  0.91608551  0.26948525     0.93000
C630        C  0.40837173  0.82761979  0.23290727     0.92800
Mg631      Mg  0.00810676  0.59520384  0.22296167     1.58000
O632        O  0.05378093  0.65887051  0.25382233    -0.80800
O633        O  0.46288703  0.53761896  0.18468330    -0.75000
O634        O  0.34347899  0.89798343  0.25647381    -0.80900
O635        O  0.04637701  0.89468792  0.27636899    -0.82600
O636        O  0.15972588  0.61132514  0.24400411    -0.80900
C637        C  0.43311255  0.49876722  0.19095986     0.87300
O638        O  0.05721670  0.57883527  0.22268197    -0.88100
O639        O  0.48225807  0.55783694  0.27565762    -0.88200
O640        O  0.03846479  0.57995440  0.31363852    -0.75200
Mg641      Mg  0.40709499  0.91622491  0.22528617     1.58000
O642        O  0.34319163  0.95644399  0.27622695    -0.82600
H643        H  0.02302012  0.94182503  0.16749197    -0.06300
O644        O  0.07674213  0.52598428  0.27674286    -0.87900
H645        H  0.08746973  0.52919141  0.33367716    -0.06100
H646        H  0.06608849  0.59041702  0.16590647    -0.06300
C647        C  0.06938030  0.00940626  0.30925165     0.87200
C648        C  0.50351350  0.94010106  0.19193429     0.87800
C649        C  0.06724380  0.57239241  0.19039443     0.87900
H650        H  0.47955103  0.56722340  0.33221052    -0.06300
O651        O  0.42653066  0.96498837  0.31528251    -0.75300
Mg652      Mg  0.09555834  0.59267437  0.27496978     1.58000
H653        H  0.43754366  0.91845255  0.33432875    -0.06300
C654        C  0.08707292  0.91697376  0.26990328     0.92900
O655        O  0.15985176  0.55250748  0.22504151    -0.82600
C656        C  0.17944346  0.59294624  0.23151334     0.92900
O657        O  0.38673331  0.84565428  0.22605790    -0.82500
Mg658      Mg  0.41474810  0.50865427  0.27565074     1.58200
O659        O  0.10580433  0.95556455  0.25709390    -0.80900
O660        O  0.45660452  0.61306831  0.22253662    -0.82600
C661        C  0.16133138  0.83219824  0.35639158    -0.05900
C662        C  0.19375734  0.82888499  0.37594899    -0.17100
C663        C  0.19373207  0.82491963  0.41616732     0.11300
C664        C  0.16294896  0.82923305  0.43839850    -0.05900
C665        C  0.12570484  0.82237878  0.41851976    -0.17100
C666        C  0.12361235  0.82161936  0.37798238     0.11300
S667        S  0.22931999  0.80746704  0.43459331    -0.32100
S668        S  0.07115732  0.80076346  0.35514491    -0.32100
H669        H  0.04685884  0.79450393  0.38890348     0.29300
H670        H  0.20726325  0.78877459  0.46907778     0.29300
H671        H  0.21736613  0.82545200  0.35968920     0.19900
H672        H  0.09721461  0.81536021  0.43484658     0.19900
C673        C  0.16288998  0.84139304  0.18843229    -0.05900
C674        C  0.12547136  0.80932423  0.16926556    -0.17100
C675        C  0.12242550  0.80699062  0.12894155     0.11300
C676        C  0.15930700  0.83570365  0.10634176    -0.05900
C677        C  0.19227392  0.87268469  0.12526633    -0.17100
C678        C  0.19345487  0.87696372  0.16551757     0.11300
S679        S  0.06893552  0.76950538  0.10998404    -0.32100
S680        S  0.23150939  0.93052978  0.18358380    -0.32100
H681        H  0.20993009  0.92782525  0.21798732     0.29300
H682        H  0.07225465  0.79213611  0.07605234     0.29300
H683        H  0.09711823  0.78686187  0.18584924     0.19900
H684        H  0.21615627  0.89996575  0.10846431     0.19900
C685        C  0.33652680  0.66139359  0.39401586    -0.05900
C686        C  0.37389739  0.69391248  0.37515065    -0.17100
C687        C  0.37760906  0.69600879  0.33486549     0.11300
C688        C  0.34115771  0.66693321  0.31197029    -0.05900
C689        C  0.30828150  0.62978617  0.33080176    -0.17100
C690        C  0.30644503  0.62570105  0.37107273     0.11300
S691        S  0.43151661  0.73322607  0.31646492    -0.32100
S692        S  0.26793786  0.57231635  0.38936141    -0.32100
H693        H  0.29086819  0.57423633  0.42274268     0.29300
H694        H  0.42857419  0.71026400  0.28300275     0.29300
H695        H  0.40182783  0.71665609  0.39198032     0.19900
H696        H  0.28496874  0.60231804  0.31393288     0.19900
C697        C  0.34055276  0.66837961  0.14406939    -0.05900
C698        C  0.30803462  0.63084006  0.12552920    -0.17100
C699        C  0.30632556  0.62628774  0.08532838     0.11300
C700        C  0.33612474  0.66185366  0.06201755    -0.05900
C701        C  0.37327568  0.69488042  0.08076852    -0.17100
C702        C  0.37671399  0.69777645  0.12105936     0.11300
S703        S  0.26863059  0.57243925  0.06771919    -0.32100
S704        S  0.42997302  0.73670703  0.13953661    -0.32100
H705        H  0.42851205  0.71312180  0.17225986     0.29300
H706        H  0.29148449  0.57461912  0.03429237     0.29300
H707        H  0.28504988  0.60331938  0.14262221     0.19900
H708        H  0.40121393  0.71762023  0.06388905     0.19900
C709        C  0.33427081  0.66287842  0.51770297     0.30200
C710        C  0.33467467  0.66286717  0.93817441     0.30200
C711        C  0.35660329  0.64175881  0.49830988    -0.06000
C712        C  0.28956840  0.64134107  0.49799203    -0.06800
C713        C  0.35644761  0.70767818  0.49811098    -0.06700
C714        C  0.35649588  0.64109976  0.95824122    -0.06000
C715        C  0.28945657  0.64153551  0.95755847    -0.06800
C716        C  0.35741807  0.70813129  0.95766777    -0.06700
C717        C  0.37680211  0.61920591  0.94714410    -0.32000
N718        N  0.38942818  0.60756266  0.47964066     0.14500
C719        C  0.37759840  0.62140692  0.51091059    -0.32100
H720        H  0.38286360  0.61593338  0.54067351     0.16400
C721        C  0.24698551  0.62624796  0.94614864    -0.31000
N722        N  0.22197281  0.61524717  0.97827706     0.13200
C723        C  0.24763880  0.62582801  0.50983546    -0.31000
C724        C  0.37633180  0.75112727  0.94650017    -0.31300
N725        N  0.38578619  0.77568011  0.97876623     0.13700
H726        H  0.38201663  0.76375717  0.91733301     0.16300
C727        C  0.37296275  0.74956731  0.51013082    -0.31300
H728        H  0.37578271  0.76071094  0.53956348     0.16300
H729        H  0.23636465  0.62310297  0.53925787     0.16300
H730        H  0.38174814  0.61207913  0.91791535     0.16400
H731        H  0.23505926  0.62343643  0.91693417     0.16300
C732        C  0.33926208  0.67026694  0.68824108     0.30200
C733        C  0.33942334  0.66929925  0.76775209     0.30200
C734        C  0.36054052  0.64765663  0.70764327    -0.06000
C735        C  0.36131807  0.71501948  0.70816472    -0.06800
C736        C  0.29383931  0.64780378  0.70790574    -0.06700
C737        C  0.35991293  0.64682945  0.74767104    -0.06000
C738        C  0.36158204  0.71412156  0.74859647    -0.06800
C739        C  0.29429043  0.64795387  0.74838152    -0.06700
C740        C  0.37895436  0.62439417  0.75961502    -0.32000
N741        N  0.39201926  0.61238244  0.72794848     0.14500
C742        C  0.38126104  0.62641839  0.69585287    -0.32100
H743        H  0.38811260  0.62169719  0.66644639     0.16400
C744        C  0.37688737  0.75550858  0.76118959    -0.31000
N745        N  0.38726262  0.78172563  0.73010385     0.13200
C746        C  0.37631431  0.75749871  0.69754850    -0.31000
C747        C  0.25197691  0.63015670  0.76052271    -0.31300
N748        N  0.22580185  0.61770662  0.72913232     0.13700
H749        H  0.24058359  0.62610592  0.79002628     0.16300
C750        C  0.25061228  0.62849701  0.69680835    -0.31300
H751        H  0.23794486  0.62315079  0.66766827     0.16300
H752        H  0.37876492  0.76988162  0.66856797     0.16300
H753        H  0.38409377  0.61823705  0.78920427     0.16400
H754        H  0.37935137  0.76595268  0.79083748     0.16300
C755        C  0.16150850  0.83324529  0.56223012     0.30200
C756        C  0.16372482  0.83274633  0.98270447     0.30200
C757        C  0.14022218  0.85522586  0.54117508    -0.06000
C758        C  0.20736202  0.85576029  0.54354885    -0.06800
C759        C  0.14037690  0.78831520  0.54300128    -0.06700
C760        C  0.14100892  0.85461417  0.00091889    -0.06000
C761        C  0.20804212  0.85729643  0.00316200    -0.06800
C762        C  0.14120849  0.78869849  0.00273230    -0.06700
C763        C  0.12242777  0.87742905  0.98802030    -0.32000
N764        N  0.10997046  0.89112988  0.51901448     0.14500
C765        C  0.12108935  0.87841114  0.55174366    -0.32100
H766        H  0.11568617  0.88545848  0.58084997     0.16400
C767        C  0.25074644  0.88067035  0.99205059    -0.31000
N768        N  0.27597494  0.88894784  0.52362278     0.13200
C769        C  0.25024825  0.87384322  0.55539826    -0.31000
C770        C  0.12233556  0.74687059  0.99032940    -0.31300
N771        N  0.11043874  0.72084743  0.52168825     0.13700
H772        H  0.11740710  0.73601000  0.96062164     0.16300
C773        C  0.12163312  0.74540942  0.55407591    -0.31300
H774        H  0.11668377  0.73286004  0.58324081     0.16300
H775        H  0.26193884  0.87563302  0.58457150     0.16300
H776        H  0.11911934  0.88476964  0.95832845     0.16400
H777        H  0.26298282  0.88979568  0.96288546     0.16300
C778        C  0.16451814  0.83928648  0.73273678     0.30200
C779        C  0.16359543  0.83682728  0.81226375     0.30200
C780        C  0.14392583  0.86178570  0.75296476    -0.06000
C781        C  0.14056133  0.79414742  0.75143848    -0.06800
C782        C  0.20908066  0.85873734  0.75248163    -0.06700
C783        C  0.14371575  0.86141585  0.79322363    -0.06000
C784        C  0.14013010  0.79281952  0.79170645    -0.06800
C785        C  0.20919312  0.85955867  0.79289952    -0.06700
C786        C  0.12406605  0.88403306  0.80451503    -0.32000
N787        N  0.11183666  0.89648141  0.77224126     0.14500
C788        C  0.12399462  0.88331757  0.74076281    -0.32100
H789        H  0.11800739  0.88841580  0.71110553     0.16400
C790        C  0.12247380  0.75010388  0.80257461    -0.31000
N791        N  0.11214691  0.72605962  0.76996783     0.13200
C792        C  0.12357781  0.75242739  0.73883732    -0.31000
C793        C  0.25254023  0.88201584  0.80408759    -0.31300
N794        N  0.27744988  0.89098644  0.77202852     0.13700
H795        H  0.26526905  0.89151876  0.83305461     0.16300
C796        C  0.25131955  0.87594291  0.74067686    -0.31300
H797        H  0.26266863  0.87871747  0.71127495     0.16300
H798        H  0.12127317  0.74180765  0.70926172     0.16300
H799        H  0.11849191  0.89047506  0.83377134     0.16400
H800        H  0.11838843  0.73763562  0.83172537     0.16300
O801        O  0.44498241  0.51726740  0.52711030    -0.88200
C802        C  0.42862041  0.93281623  0.94165690     0.87900
Mg803      Mg  0.49385317  0.58427769  0.52638009     1.58100
O804        O  0.47791172  0.92377766  0.52627240    -0.87900
O805        O  0.42420105  0.96164506  0.56529129    -0.75200
C806        C  0.17577535  0.59317490  0.98028728     0.92900
O807        O  0.46288336  0.53595901  0.93569442    -0.75000
O808        O  0.15699161  0.61412443  0.97385461    -0.82500
Mg809      Mg  0.40616278  0.99148151  0.97531343     1.58000
C810        C  0.08903128  0.91547149  0.51613136     0.92900
O811        O  0.34356279  0.94692930  0.50795937    -0.80800
H812        H  0.47642536  0.91305838  0.58311154    -0.06100
C813        C  0.06255949  0.49744083  0.93985507     0.87800
O814        O  0.03892976  0.57307446  0.56483523    -0.75300
O815        O  0.42277961  0.94269728  0.97423024    -0.88100
O816        O  0.04999404  0.89641679  0.50375904    -0.80900
C817        C  0.41024172  0.82179895  0.98135590     0.93000
C818        C  0.32199975  0.90857978  0.52116945     0.92800
Mg819      Mg  0.09178435  0.50661468  0.52389282     1.58000
O820        O  0.15540624  0.55416755  0.99236440    -0.80800
O821        O  0.03493282  0.96071853  0.56320971    -0.75000
O822        O  0.39174648  0.84091143  0.99517129    -0.80900
O823        O  0.38787125  0.54267521  0.97527785    -0.82600
O824        O  0.10426041  0.65578720  0.50540141    -0.80900
C825        C  0.99551603  0.93120284  0.55832492     0.87300
O826        O  0.07399874  0.55450868  0.52574767    -0.88100
O827        O  0.05260679  0.98047808  0.97219120    -0.88200
O828        O  0.07337317  0.53648815  0.93451219    -0.75200
Mg829      Mg  0.41053102  0.90479867  0.52643620     1.58000
O830        O  0.45072719  0.84172888  0.97380442    -0.82600
H831        H  0.43717115  0.52022790  0.58395294    -0.06300
O832        O  0.01898376  0.57321456  0.97351378    -0.87900
H833        H  0.02165983  0.58378953  0.91657496    -0.06100
H834        H  0.08657414  0.56270612  0.58238555    -0.06300
C835        C  0.50204577  0.56570866  0.94115502     0.87200
C836        C  0.43504692  0.00062368  0.55956904     0.87800
C837        C  0.06790022  0.56391882  0.55842129     0.87900
H838        H  0.06069761  0.97815803  0.91530014    -0.06300
O839        O  0.45764898  0.92372454  0.93525896    -0.75300
Mg840      Mg  0.08599821  0.59286779  0.97383060     1.58000
H841        H  0.40969781  0.93362723  0.91771476    -0.06300
C842        C  0.40994944  0.58294177  0.98232482     0.92900
O843        O  0.04547816  0.65515665  0.52654898    -0.82600
C844        C  0.08588692  0.67490253  0.51917427     0.92900
O845        O  0.33916282  0.88587150  0.52732818    -0.82500
Mg846      Mg  0.00325395  0.91294977  0.97338541     1.58200
O847        O  0.44844163  0.60140555  0.99565355    -0.80900
O848        O  0.11099137  0.95590453  0.52266809    -0.82600
O849        O  0.02053545  0.95057377  0.72421420    -0.88200
C850        C  0.43607747  0.93626424  0.80981083     0.87900
Mg851      Mg  0.08832854  0.00004176  0.72489127     1.58100
O852        O  0.42601814  0.98267950  0.72365200    -0.87900
O853        O  0.46417351  0.92893876  0.68646232    -0.75200
C854        C  0.09234484  0.68036381  0.76704647     0.92900
O855        O  0.03994969  0.97025444  0.81498513    -0.75000
O856        O  0.11485971  0.66321850  0.77397793    -0.82500
Mg857      Mg  0.49444155  0.91260574  0.77656761     1.58000
C858        C  0.41621286  0.59141912  0.73008735     0.92900
O859        O  0.44726681  0.84848217  0.74573020    -0.80800
H860        H  0.41466161  0.97866988  0.66680934    -0.06100
C861        C  0.99916603  0.56873896  0.80793748     0.87800
O862        O  0.07696130  0.54379035  0.68497703    -0.75300
O863        O  0.44557172  0.92943297  0.77743073    -0.88100
O864        O  0.39745430  0.55324805  0.74385333    -0.80900
C865        C  0.32373592  0.91608552  0.76948521     0.93000
C866        C  0.40837171  0.82761979  0.73290726     0.92800
Mg867      Mg  0.00810682  0.59520378  0.72296177     1.58000
O868        O  0.05378096  0.65887059  0.75382232    -0.80800
O869        O  0.46288719  0.53761896  0.68468331    -0.75000
O870        O  0.34347894  0.89798333  0.75647376    -0.80900
O871        O  0.04637703  0.89468800  0.77636901    -0.82600
O872        O  0.15972585  0.61132520  0.74400403    -0.80900
C873        C  0.43311270  0.49876725  0.69095983     0.87300
O874        O  0.05721667  0.57883514  0.72268198    -0.88100
O875        O  0.48225802  0.55783700  0.77565760    -0.88200
O876        O  0.03846473  0.57995445  0.81363849    -0.75200
Mg877      Mg  0.40709494  0.91622488  0.72528609     1.58000
O878        O  0.34319178  0.95644401  0.77622689    -0.82600
H879        H  0.02302028  0.94182523  0.66749208    -0.06300
O880        O  0.07674197  0.52598415  0.77674282    -0.87900
H881        H  0.08746983  0.52919152  0.83367723    -0.06100
H882        H  0.06608851  0.59041700  0.66590652    -0.06300
C883        C  0.06938044  0.00940635  0.80925165     0.87200
C884        C  0.50351363  0.94010116  0.69193429     0.87800
C885        C  0.06724385  0.57239240  0.69039443     0.87900
H886        H  0.47955104  0.56722348  0.83221040    -0.06300
O887        O  0.42653050  0.96498822  0.81528267    -0.75300
Mg888      Mg  0.09555823  0.59267430  0.77496978     1.58000
H889        H  0.43754336  0.91845225  0.83432858    -0.06300
C890        C  0.08707295  0.91697376  0.76990325     0.92900
O891        O  0.15985170  0.55250743  0.72504176    -0.82600
C892        C  0.17944340  0.59294623  0.73151340     0.92900
O893        O  0.38673330  0.84565427  0.72605782    -0.82500
Mg894      Mg  0.41474806  0.50865426  0.77565072     1.58200
O895        O  0.10580440  0.95556453  0.75709387    -0.80900
O896        O  0.45660458  0.61306823  0.72253676    -0.82600
C897        C  0.16133129  0.83219812  0.85639156    -0.05900
C898        C  0.19375740  0.82888506  0.87594893    -0.17100
C899        C  0.19373210  0.82491974  0.91616730     0.11300
C900        C  0.16294891  0.82923303  0.93839847    -0.05900
C901        C  0.12570476  0.82237866  0.91851976    -0.17100
C902        C  0.12361226  0.82161920  0.87798239     0.11300
S903        S  0.22931980  0.80746685  0.93459327    -0.32100
S904        S  0.07115721  0.80076355  0.85514508    -0.32100
H905        H  0.04685871  0.79450368  0.88890372     0.29300
H906        H  0.20726312  0.78877461  0.96907782     0.29300
H907        H  0.21736605  0.82545211  0.85968929     0.19900
H908        H  0.09721461  0.81536015  0.93484657     0.19900
C909        C  0.16288996  0.84139305  0.68843231    -0.05900
C910        C  0.12547130  0.80932423  0.66926558    -0.17100
C911        C  0.12242551  0.80699068  0.62894154     0.11300
C912        C  0.15930703  0.83570368  0.60634179    -0.05900
C913        C  0.19227398  0.87268481  0.62526634    -0.17100
C914        C  0.19345490  0.87696374  0.66551762     0.11300
S915        S  0.06893559  0.76950521  0.60998400    -0.32100
S916        S  0.23150934  0.93052988  0.68358379    -0.32100
H917        H  0.20993029  0.92782527  0.71798749     0.29300
H918        H  0.07225462  0.79213586  0.57605227     0.29300
H919        H  0.09711836  0.78686191  0.68584913     0.19900
H920        H  0.21615607  0.89996564  0.60846451     0.19900
C921        C  0.33652672  0.66139347  0.89401590    -0.05900
C922        C  0.37389724  0.69391231  0.87515064    -0.17100
C923        C  0.37760890  0.69600864  0.83486550     0.11300
C924        C  0.34115754  0.66693313  0.81197030    -0.05900
C925        C  0.30828133  0.62978609  0.83080178    -0.17100
C926        C  0.30644492  0.62570100  0.87107275     0.11300
S927        S  0.43151643  0.73322588  0.81646489    -0.32100
S928        S  0.26793798  0.57231631  0.88936141    -0.32100
H929        H  0.29086828  0.57423645  0.92274275     0.29300
H930        H  0.42857411  0.71026365  0.78300285     0.29300
H931        H  0.40182781  0.71665595  0.89198035     0.19900
H932        H  0.28496863  0.60231794  0.81393295     0.19900
C933        C  0.34055273  0.66837963  0.64406939    -0.05900
C934        C  0.30803453  0.63084011  0.62552915    -0.17100
C935        C  0.30632547  0.62628775  0.58532833     0.11300
C936        C  0.33612467  0.66185371  0.56201752    -0.05900
C937        C  0.37327566  0.69488053  0.58076851    -0.17100
C938        C  0.37671399  0.69777654  0.62105940     0.11300
S939        S  0.26863070  0.57243913  0.56771916    -0.32100
S940        S  0.42997311  0.73670705  0.63953679    -0.32100
H941        H  0.42851208  0.71312169  0.67225997     0.29300
H942        H  0.29148443  0.57461908  0.53429220     0.29300
H943        H  0.28504976  0.60331938  0.64262215     0.19900
H944        H  0.40121381  0.71762021  0.56388914     0.19900
C945        C  0.83427083  0.16287839  0.01770302     0.30200
C946        C  0.83467468  0.16286726  0.43817436     0.30200
C947        C  0.85660341  0.14175886  0.99830995    -0.06000
C948        C  0.78956839  0.14134096  0.99799207    -0.06800
C949        C  0.85644757  0.20767812  0.99811099    -0.06700
C950        C  0.85649582  0.14109976  0.45824114    -0.06000
C951        C  0.78945654  0.14153563  0.45755838    -0.06800
C952        C  0.85741808  0.20813134  0.45766778    -0.06700
C953        C  0.87680214  0.11920594  0.44714407    -0.32000
N954        N  0.88942815  0.10756260  0.97964067     0.14500
C955        C  0.87759845  0.12140688  0.01091064    -0.32100
H956        H  0.88286365  0.11593326  0.04067351     0.16400
C957        C  0.74698545  0.12624799  0.44614864    -0.31000
N958        N  0.72197281  0.11524718  0.47827705     0.13200
C959        C  0.74763875  0.12582791  0.00983546    -0.31000
C960        C  0.87633184  0.25112730  0.44650019    -0.31300
N961        N  0.88578620  0.27568016  0.47876623     0.13700
H962        H  0.88201666  0.26375719  0.41733303     0.16300
C963        C  0.87296254  0.24956722  0.01013081    -0.31300
H964        H  0.87578245  0.26071083  0.03956343     0.16300
H965        H  0.73636459  0.12310293  0.03925783     0.16300
H966        H  0.88174823  0.11207912  0.41791532     0.16400
H967        H  0.73505905  0.12343640  0.41693405     0.16300
C968        C  0.83926212  0.17026698  0.18824105     0.30200
C969        C  0.83942341  0.16929930  0.26775204     0.30200
C970        C  0.86054054  0.14765664  0.20764322    -0.06000
C971        C  0.86131813  0.21501953  0.20816467    -0.06800
C972        C  0.79383937  0.14780387  0.20790570    -0.06700
C973        C  0.85991301  0.14682950  0.24767098    -0.06000
C974        C  0.86158210  0.21412160  0.24859644    -0.06800
C975        C  0.79429050  0.14795393  0.24838148    -0.06700
C976        C  0.87895440  0.12439420  0.25961498    -0.32000
N977        N  0.89201933  0.11238250  0.22794841     0.14500
C978        C  0.88126105  0.12641838  0.19585282    -0.32100
H979        H  0.88811256  0.12169712  0.16644628     0.16400
C980        C  0.87688741  0.25550858  0.26118948    -0.31000
N981        N  0.88726267  0.28172567  0.23010384     0.13200
C982        C  0.87631435  0.25749874  0.19754849    -0.31000
C983        C  0.75197702  0.13015684  0.26052262    -0.31300
N984        N  0.72580193  0.11770671  0.22913231     0.13700
H985        H  0.74058361  0.12610612  0.29002650     0.16300
C986        C  0.75061236  0.12849715  0.19680832    -0.31300
H987        H  0.73794493  0.12315093  0.16766823     0.16300
H988        H  0.87876495  0.26988171  0.16856788     0.16300
H989        H  0.88409370  0.11823703  0.28920412     0.16400
H990        H  0.87935143  0.26595276  0.29083776     0.16300
C991        C  0.66150850  0.33324523  0.06223009     0.30200
C992        C  0.66372485  0.33274635  0.48270449     0.30200
C993        C  0.64022217  0.35522581  0.04117507    -0.06000
C994        C  0.70736200  0.35576022  0.04354879    -0.06800
C995        C  0.64037692  0.28831516  0.04300125    -0.06700
C996        C  0.64100881  0.35461407  0.50091888    -0.06000
C997        C  0.70804214  0.35729655  0.50316203    -0.06800
C998        C  0.64120861  0.28869852  0.50273234    -0.06700
C999        C  0.62242773  0.37742899  0.48802033    -0.32000
N1000       N  0.60997046  0.39112984  0.01901452     0.14500
C1001       C  0.62108934  0.37841108  0.05174368    -0.32100
H1002       H  0.61568616  0.38545839  0.08085000     0.16400
C1003       C  0.75074646  0.38067037  0.49205064    -0.31000
N1004       N  0.77597491  0.38894782  0.02362268     0.13200
C1005       C  0.75024825  0.37384316  0.05539826    -0.31000
C1006       C  0.62233560  0.24687064  0.49032945    -0.31300
N1007       N  0.61043874  0.22084741  0.02168821     0.13700
H1008       H  0.61740718  0.23601003  0.46062166     0.16300
C1009       C  0.62163312  0.24540938  0.05407590    -0.31300
H1010       H  0.61668374  0.23286003  0.08324072     0.16300
H1011       H  0.76193877  0.37563297  0.08457113     0.16300
H1012       H  0.61911932  0.38476963  0.45832818     0.16400
H1013       H  0.76298285  0.38979557  0.46288558     0.16300
C1014       C  0.66451812  0.33928651  0.23273678     0.30200
C1015       C  0.66359540  0.33682723  0.31226377     0.30200
C1016       C  0.64392576  0.36178566  0.25296477    -0.06000
C1017       C  0.64056136  0.29414742  0.25143846    -0.06800
C1018       C  0.70908063  0.35873742  0.25248164    -0.06700
C1019       C  0.64371567  0.36141577  0.29322365    -0.06000
C1020       C  0.64013012  0.29281946  0.29170644    -0.06800
C1021       C  0.70919307  0.35955867  0.29289953    -0.06700
C1022       C  0.62406602  0.38403302  0.30451507    -0.32000
N1023       N  0.61183670  0.39648147  0.27224131     0.14500
C1024       C  0.62399467  0.38331768  0.24076285    -0.32100
H1025       H  0.61800754  0.38841605  0.21110560     0.16400
C1026       C  0.62247376  0.25010380  0.30257459    -0.31000
N1027       N  0.61214691  0.22605957  0.26996776     0.13200
C1028       C  0.62357783  0.25242739  0.23883730    -0.31000
C1029       C  0.75254015  0.38201579  0.30408761    -0.31300
N1030       N  0.77744984  0.39098632  0.27202859     0.13700
H1031       H  0.76526895  0.39151875  0.33305471     0.16300
C1032       C  0.75131952  0.37594286  0.24067690    -0.31300
H1033       H  0.76266864  0.37871741  0.21127500     0.16300
H1034       H  0.62127317  0.24180766  0.20926162     0.16300
H1035       H  0.61849189  0.39047501  0.33377140     0.16400
H1036       H  0.61838831  0.23763551  0.33172525     0.16300
O1037       O  0.94498238  0.01726738  0.02711029    -0.88200
C1038       C  0.92862045  0.43281628  0.44165695     0.87900
Mg1039     Mg  0.99385312  0.08427769  0.02638008     1.58100
O1040       O  0.97791172  0.42377759  0.02627243    -0.87900
O1041       O  0.92420098  0.46164491  0.06529120    -0.75200
C1042       C  0.67577539  0.09317497  0.48028732     0.92900
O1043       O  0.96288338  0.03595912  0.43569445    -0.75000
O1044       O  0.65699170  0.11412456  0.47385461    -0.82500
Mg1045     Mg  0.90616280  0.49148153  0.47531344     1.58000
C1046       C  0.58903125  0.41547145  0.01613137     0.92900
O1047       O  0.84356278  0.44692927  0.00795938    -0.80800
H1048       H  0.97642537  0.41305828  0.08311157    -0.06100
C1049       C  0.56255952  0.99744089  0.43985511     0.87800
O1050       O  0.53892968  0.07307440  0.06483524    -0.75300
O1051       O  0.92277972  0.44269742  0.47423028    -0.88100
O1052       O  0.54999400  0.39641669  0.00375909    -0.80900
C1053       C  0.91024171  0.32179901  0.48135580     0.93000
C1054       C  0.82199969  0.40857972  0.02116942     0.92800
Mg1055     Mg  0.59178432  0.00661463  0.02389285     1.58000
O1056       O  0.65540628  0.05416764  0.49236446    -0.80800
O1057       O  0.53493281  0.46071849  0.06320975    -0.75000
O1058       O  0.89174647  0.34091151  0.49517122    -0.80900
O1059       O  0.88787124  0.04267525  0.47527789    -0.82600
O1060       O  0.60426033  0.15578715  0.00540152    -0.80900
C1061       C  0.49551602  0.43120276  0.05832493     0.87300
O1062       O  0.57399870  0.05450862  0.02574773    -0.88100
O1063       O  0.55260678  0.48047805  0.47219126    -0.88200
O1064       O  0.57337317  0.03648817  0.43451218    -0.75200
Mg1065     Mg  0.91053099  0.40479857  0.02643620     1.58000
O1066       O  0.95072714  0.34172893  0.47380424    -0.82600
H1067       H  0.93717075  0.02022756  0.08395285    -0.06300
O1068       O  0.51898376  0.07321446  0.47351377    -0.87900
H1069       H  0.52166005  0.08378966  0.41657497    -0.06100
H1070       H  0.58657401  0.06270596  0.08238567    -0.06300
C1071       C  0.00204582  0.06570867  0.44115507     0.87200
C1072       C  0.93504687  0.50062355  0.05956901     0.87800
C1073       C  0.56790011  0.06391873  0.05842135     0.87900
H1074       H  0.56069728  0.47815783  0.41530010    -0.06300
O1075       O  0.95764912  0.42372473  0.43525899    -0.75300
Mg1076     Mg  0.58599827  0.09286783  0.47383052     1.58000
H1077       H  0.90969768  0.43362707  0.41771486    -0.06300
C1078       C  0.90994948  0.08294183  0.48232487     0.92900
O1079       O  0.54547810  0.15515672  0.02654898    -0.82600
C1080       C  0.58588686  0.17490253  0.01917429     0.92900
O1081       O  0.83916277  0.38587144  0.02732821    -0.82500
Mg1082     Mg  0.50325397  0.41294987  0.47338542     1.58200
O1083       O  0.94844168  0.10140556  0.49565358    -0.80900
O1084       O  0.61099137  0.45590452  0.02266793    -0.82600
O1085       O  0.52053542  0.45057374  0.22421416    -0.88200
C1086       C  0.93607751  0.43626429  0.30981081     0.87900
Mg1087     Mg  0.58832854  0.50004184  0.22489118     1.58100
O1088       O  0.92601816  0.48267949  0.22365206    -0.87900
O1089       O  0.96417352  0.42893873  0.18646235    -0.75200
C1090       C  0.59234484  0.18036375  0.26704640     0.92900
O1091       O  0.53994972  0.47025446  0.31498508    -0.75000
O1092       O  0.61485974  0.16321845  0.27397776    -0.82500
Mg1093     Mg  0.99444159  0.41260572  0.27656755     1.58000
C1094       C  0.91621292  0.09141916  0.23008730     0.92900
O1095       O  0.94726682  0.34848219  0.24573022    -0.80800
H1096       H  0.91466155  0.47866971  0.16680941    -0.06100
C1097       C  0.49916604  0.06873892  0.30793751     0.87800
O1098       O  0.57696129  0.04379035  0.18497706    -0.75300
O1099       O  0.94557170  0.42943287  0.27743073    -0.88100
O1100       O  0.89745439  0.05324814  0.24385335    -0.80900
C1101       C  0.82373587  0.41608552  0.26948528     0.93000
C1102       C  0.90837174  0.32761982  0.23290722     0.92800
Mg1103     Mg  0.50810683  0.09520375  0.22296178     1.58000
O1104       O  0.55378090  0.15887052  0.25382238    -0.80800
O1105       O  0.96288719  0.03761891  0.18468330    -0.75000
O1106       O  0.84347902  0.39798348  0.25647379    -0.80900
O1107       O  0.54637706  0.39468801  0.27636898    -0.82600
O1108       O  0.65972589  0.11132518  0.24400412    -0.80900
C1109       C  0.93311264  0.99876720  0.19095986     0.87300
O1110       O  0.55721678  0.07883524  0.22268199    -0.88100
O1111       O  0.98225802  0.05783695  0.27565763    -0.88200
O1112       O  0.53846473  0.07995440  0.31363853    -0.75200
Mg1113     Mg  0.90709501  0.41622495  0.22528610     1.58000
O1114       O  0.84319162  0.45644401  0.27622695    -0.82600
H1115       H  0.52302006  0.44182504  0.16749207    -0.06300
O1116       O  0.57674206  0.02598423  0.27674285    -0.87900
H1117       H  0.58746967  0.02919141  0.33367718    -0.06100
H1118       H  0.56608841  0.09041690  0.16590649    -0.06300
C1119       C  0.56938045  0.50940641  0.30925169     0.87200
C1120       C  0.00351363  0.44010109  0.19193430     0.87800
C1121       C  0.56724386  0.07239240  0.19039444     0.87900
H1122       H  0.97955106  0.06722348  0.33221042    -0.06300
O1123       O  0.92653059  0.46498833  0.31528254    -0.75300
Mg1124     Mg  0.59555827  0.09267430  0.27496980     1.58000
H1125       H  0.93754335  0.41845241  0.33432860    -0.06300
C1126       C  0.58707298  0.41697381  0.26990329     0.92900
O1127       O  0.65985178  0.05250753  0.22504153    -0.82600
C1128       C  0.67944347  0.09294627  0.23151336     0.92900
O1129       O  0.88673339  0.34565434  0.22605766    -0.82500
Mg1130     Mg  0.91474808  0.00865427  0.27565076     1.58200
O1131       O  0.60580444  0.45556460  0.25709390    -0.80900
O1132       O  0.95660462  0.11306827  0.22253662    -0.82600
C1133       C  0.66133131  0.33219810  0.35639158    -0.05900
C1134       C  0.69375738  0.32888498  0.37594897    -0.17100
C1135       C  0.69373209  0.32491966  0.41616733     0.11300
C1136       C  0.66294891  0.32923298  0.43839849    -0.05900
C1137       C  0.62570475  0.32237863  0.41851977    -0.17100
C1138       C  0.62361229  0.32161929  0.37798238     0.11300
S1139       S  0.72931979  0.30746678  0.43459332    -0.32100
S1140       S  0.57115727  0.30076350  0.35514492    -0.32100
H1141       H  0.54685876  0.29450387  0.38890349     0.29300
H1142       H  0.70726314  0.28877458  0.46907789     0.29300
H1143       H  0.71736602  0.32545200  0.35968933     0.19900
H1144       H  0.59721457  0.31536004  0.43484656     0.19900
C1145       C  0.66288998  0.34139307  0.18843230    -0.05900
C1146       C  0.62547134  0.30932431  0.16926556    -0.17100
C1147       C  0.62242550  0.30699067  0.12894154     0.11300
C1148       C  0.65930706  0.33570363  0.10634177    -0.05900
C1149       C  0.69227395  0.37268472  0.12526633    -0.17100
C1150       C  0.69345494  0.37696373  0.16551758     0.11300
S1151       S  0.56893549  0.26950544  0.10998404    -0.32100
S1152       S  0.73150934  0.43052982  0.18358381    -0.32100
H1153       H  0.70993015  0.42782519  0.21798742     0.29300
H1154       H  0.57225468  0.29213592  0.07605216     0.29300
H1155       H  0.59711821  0.28686194  0.18584924     0.19900
H1156       H  0.71615627  0.39996583  0.10846427     0.19900
C1157       C  0.83652677  0.16139361  0.39401587    -0.05900
C1158       C  0.87389731  0.19391245  0.37515062    -0.17100
C1159       C  0.87760896  0.19600869  0.33486548     0.11300
C1160       C  0.84115760  0.16693319  0.31197028    -0.05900
C1161       C  0.80828140  0.12978618  0.33080177    -0.17100
C1162       C  0.80644499  0.12570109  0.37107275     0.11300
S1163       S  0.93151647  0.23322585  0.31646491    -0.32100
S1164       S  0.76793805  0.07231635  0.38936142    -0.32100
H1165       H  0.79086830  0.07423647  0.42274278     0.29300
H1166       H  0.92857410  0.21026368  0.28300282     0.29300
H1167       H  0.90182788  0.21665610  0.39198032     0.19900
H1168       H  0.78496867  0.10231800  0.31393291     0.19900
C1169       C  0.84055271  0.16837958  0.14406940    -0.05900
C1170       C  0.80803454  0.13084006  0.12552918    -0.17100
C1171       C  0.80632551  0.12628776  0.08532837     0.11300
C1172       C  0.83612469  0.16185369  0.06201755    -0.05900
C1173       C  0.87327566  0.19488048  0.08076854    -0.17100
C1174       C  0.87671393  0.19777646  0.12105941     0.11300
S1175       S  0.76863076  0.07243924  0.06771918    -0.32100
S1176       S  0.92997293  0.23670704  0.13953683    -0.32100
H1177       H  0.92851203  0.21312161  0.17225992     0.29300
H1178       H  0.79148456  0.07461916  0.03429228     0.29300
H1179       H  0.78504975  0.10331933  0.14262219     0.19900
H1180       H  0.90121380  0.21762019  0.06388916     0.19900
C1181       C  0.83427073  0.16287836  0.51770297     0.30200
C1182       C  0.83467468  0.16286721  0.93817440     0.30200
C1183       C  0.85660329  0.14175881  0.49830986    -0.06000
C1184       C  0.78956832  0.14134099  0.49799201    -0.06800
C1185       C  0.85644754  0.20767811  0.49811099    -0.06700
C1186       C  0.85649586  0.14109978  0.95824123    -0.06000
C1187       C  0.78945658  0.14153557  0.95755844    -0.06800
C1188       C  0.85741803  0.20813132  0.95766777    -0.06700
C1189       C  0.87680211  0.11920596  0.94714409    -0.32000
N1190       N  0.88942819  0.10756265  0.47964068     0.14500
C1191       C  0.87759839  0.12140691  0.51091059    -0.32100
H1192       H  0.88286352  0.11593337  0.54067353     0.16400
C1193       C  0.74698552  0.12624801  0.94614861    -0.31000
N1194       N  0.72197286  0.11524721  0.97827707     0.13200
C1195       C  0.74763871  0.12582796  0.50983544    -0.31000
C1196       C  0.87633174  0.25112730  0.94650017    -0.31300
N1197       N  0.88578613  0.27568014  0.97876623     0.13700
H1198       H  0.88201658  0.26375719  0.91733301     0.16300
C1199       C  0.87296265  0.24956727  0.51013083    -0.31300
H1200       H  0.87578263  0.26071091  0.53956340     0.16300
H1201       H  0.73636456  0.12310304  0.53925784     0.16300
H1202       H  0.88174814  0.11207919  0.91791535     0.16400
H1203       H  0.73505925  0.12343646  0.91693422     0.16300
C1204       C  0.83926215  0.17026696  0.68824107     0.30200
C1205       C  0.83942339  0.16929929  0.76775208     0.30200
C1206       C  0.86054058  0.14765665  0.70764327    -0.06000
C1207       C  0.86131815  0.21501951  0.70816471    -0.06800
C1208       C  0.79383939  0.14780379  0.70790571    -0.06700
C1209       C  0.85991302  0.14682950  0.74767104    -0.06000
C1210       C  0.86158208  0.21412159  0.74859647    -0.06800
C1211       C  0.79429049  0.14795389  0.74838150    -0.06700
C1212       C  0.87895438  0.12439419  0.75961502    -0.32000
N1213       N  0.89201924  0.11238240  0.72794850     0.14500
C1214       C  0.88126113  0.12641842  0.69585286    -0.32100
H1215       H  0.88811271  0.12169725  0.66644647     0.16400
C1216       C  0.87688732  0.25550860  0.76118958    -0.31000
N1217       N  0.88726260  0.28172566  0.73010385     0.13200
C1218       C  0.87631429  0.25749871  0.69754851    -0.31000
C1219       C  0.75197700  0.13015678  0.76052259    -0.31300
N1220       N  0.72580194  0.11770666  0.72913227     0.13700
H1221       H  0.74058355  0.12610599  0.79002645     0.16300
C1222       C  0.75061238  0.12849700  0.69680829    -0.31300
H1223       H  0.73794494  0.12315065  0.66766819     0.16300
H1224       H  0.87876485  0.26988160  0.66856797     0.16300
H1225       H  0.88409378  0.11823707  0.78920435     0.16400
H1226       H  0.87935131  0.26595271  0.79083746     0.16300
C1227       C  0.66150846  0.33324532  0.56223011     0.30200
C1228       C  0.66372486  0.33274632  0.98270446     0.30200
C1229       C  0.64022209  0.35522582  0.54117507    -0.06000
C1230       C  0.70736198  0.35576035  0.54354884    -0.06800
C1231       C  0.64037685  0.28831522  0.54300129    -0.06700
C1232       C  0.64100893  0.35461414  0.00091888    -0.06000
C1233       C  0.70804215  0.35729648  0.00316198    -0.06800
C1234       C  0.64120863  0.28869847  0.00273231    -0.06700
C1235       C  0.62242779  0.37742904  0.98802030    -0.32000
N1236       N  0.60997047  0.39112992  0.51901447     0.14500
C1237       C  0.62108934  0.37841117  0.55174365    -0.32100
H1238       H  0.61568616  0.38545851  0.58084997     0.16400
C1239       C  0.75074645  0.38067043  0.99205059    -0.31000
N1240       N  0.77597493  0.38894785  0.52362278     0.13200
C1241       C  0.75024821  0.37384326  0.55539826    -0.31000
C1242       C  0.62233556  0.24687059  0.99032942    -0.31300
N1243       N  0.61043870  0.22084745  0.52168825     0.13700
H1244       H  0.61740705  0.23600996  0.96062159     0.16300
C1245       C  0.62163305  0.24540944  0.55407591    -0.31300
H1246       H  0.61668371  0.23286007  0.58324081     0.16300
H1247       H  0.76193881  0.37563307  0.58457150     0.16300
H1248       H  0.61911940  0.38476969  0.95832847     0.16400
H1249       H  0.76298284  0.38979579  0.96288546     0.16300
C1250       C  0.66451818  0.33928650  0.73273678     0.30200
C1251       C  0.66359549  0.33682732  0.81226375     0.30200
C1252       C  0.64392588  0.36178573  0.75296477    -0.06000
C1253       C  0.64056141  0.29414747  0.75143846    -0.06800
C1254       C  0.70908069  0.35873737  0.75248160    -0.06700
C1255       C  0.64371583  0.36141591  0.79322365    -0.06000
C1256       C  0.64013015  0.29281955  0.79170642    -0.06800
C1257       C  0.70919316  0.35955868  0.79289950    -0.06700
C1258       C  0.62406609  0.38403310  0.80451504    -0.32000
N1259       N  0.61183673  0.39648147  0.77224125     0.14500
C1260       C  0.62399470  0.38331762  0.74076283    -0.32100
H1261       H  0.61800749  0.38841588  0.71110547     0.16400
C1262       C  0.62247373  0.25010390  0.80257456    -0.31000
N1263       N  0.61214684  0.22605966  0.76996775     0.13200
C1264       C  0.62357779  0.25242745  0.73883727    -0.31000
C1265       C  0.75254025  0.38201590  0.80408759    -0.31300
N1266       N  0.77744986  0.39098643  0.77202852     0.13700
H1267       H  0.76526907  0.39151886  0.83305460     0.16300
C1268       C  0.75131957  0.37594289  0.74067683    -0.31300
H1269       H  0.76266866  0.37871740  0.71127497     0.16300
H1270       H  0.62127311  0.24180770  0.70926159     0.16300
H1271       H  0.61849192  0.39047508  0.83377127     0.16400
H1272       H  0.61838834  0.23763561  0.83172524     0.16300
O1273       O  0.94498236  0.01726742  0.52711031    -0.88200
C1274       C  0.92862051  0.43281625  0.94165691     0.87900
Mg1275     Mg  0.99385317  0.08427771  0.52638011     1.58100
O1276       O  0.97791172  0.42377775  0.52627242    -0.87900
O1277       O  0.92420099  0.46164504  0.56529131    -0.75200
C1278       C  0.67577543  0.09317491  0.98028730     0.92900
O1279       O  0.96288328  0.03595905  0.93569443    -0.75000
O1280       O  0.65699165  0.11412443  0.97385463    -0.82500
Mg1281     Mg  0.90616287  0.49148151  0.97531346     1.58000
C1282       C  0.58903123  0.41547148  0.51613136     0.92900
O1283       O  0.84356282  0.44692923  0.50795932    -0.80800
H1284       H  0.97642547  0.41305853  0.58311150    -0.06100
C1285       C  0.56255954  0.99744079  0.93985504     0.87800
O1286       O  0.53892983  0.07307454  0.56483525    -0.75300
O1287       O  0.92277977  0.44269733  0.97423026    -0.88100
O1288       O  0.54999400  0.39641676  0.50375904    -0.80900
C1289       C  0.91024167  0.32179899  0.98135590     0.93000
C1290       C  0.82199972  0.40857973  0.52116946     0.92800
Mg1291     Mg  0.59178432  0.00661471  0.52389285     1.58000
O1292       O  0.65540638  0.05416756  0.99236441    -0.80800
O1293       O  0.53493290  0.46071851  0.56320969    -0.75000
O1294       O  0.89174642  0.34091147  0.99517128    -0.80900
O1295       O  0.88787120  0.04267524  0.97527786    -0.82600
O1296       O  0.60426050  0.15578727  0.50540146    -0.80900
C1297       C  0.49551607  0.43120288  0.55832491     0.87300
O1298       O  0.57399872  0.05450868  0.52574765    -0.88100
O1299       O  0.55260677  0.48047812  0.97219123    -0.88200
O1300       O  0.57337332  0.03648816  0.93451220    -0.75200
Mg1301     Mg  0.91053098  0.40479868  0.52643620     1.58000
O1302       O  0.95072715  0.34172891  0.97380442    -0.82600
H1303       H  0.93717103  0.02022783  0.58395294    -0.06300
O1304       O  0.51898361  0.07321434  0.97351377    -0.87900
H1305       H  0.52165985  0.08378970  0.91657501    -0.06100
H1306       H  0.58657424  0.06270613  0.58238553    -0.06300
C1307       C  0.00204571  0.06570869  0.94115502     0.87200
C1308       C  0.93504696  0.50062369  0.55956903     0.87800
C1309       C  0.56790026  0.06391886  0.55842127     0.87900
H1310       H  0.56069758  0.47815801  0.91530012    -0.06300
O1311       O  0.95764911  0.42372458  0.93525894    -0.75300
Mg1312     Mg  0.58599820  0.09286776  0.97383060     1.58000
H1313       H  0.90969791  0.43362719  0.91771482    -0.06300
C1314       C  0.90994943  0.08294182  0.98232480     0.92900
O1315       O  0.54547816  0.15515666  0.52654894    -0.82600
C1316       C  0.58588693  0.17490256  0.51917427     0.92900
O1317       O  0.83916278  0.38587142  0.52732823    -0.82500
Mg1318     Mg  0.50325401  0.41294980  0.97338541     1.58200
O1319       O  0.94844163  0.10140555  0.99565356    -0.80900
O1320       O  0.61099132  0.45590452  0.52266809    -0.82600
O1321       O  0.52053539  0.45057365  0.72421417    -0.88200
C1322       C  0.93607747  0.43626429  0.80981083     0.87900
Mg1323     Mg  0.58832856  0.50004185  0.72489125     1.58100
O1324       O  0.92601821  0.48267945  0.72365201    -0.87900
O1325       O  0.96417341  0.42893874  0.68646231    -0.75200
C1326       C  0.59234478  0.18036384  0.76704642     0.92900
O1327       O  0.53994959  0.47025445  0.81498512    -0.75000
O1328       O  0.61485964  0.16321854  0.77397792    -0.82500
Mg1329     Mg  0.99444155  0.41260573  0.77656763     1.58000
C1330       C  0.91621290  0.09141915  0.73008737     0.92900
O1331       O  0.94726688  0.34848218  0.74573016    -0.80800
H1332       H  0.91466166  0.47866978  0.66680928    -0.06100
C1333       C  0.49916586  0.06873874  0.80793747     0.87800
O1334       O  0.57696114  0.04379014  0.68497708    -0.75300
O1335       O  0.94557176  0.42943302  0.77743073    -0.88100
O1336       O  0.89745441  0.05324809  0.74385336    -0.80900
C1337       C  0.82373587  0.41608550  0.76948522     0.93000
C1338       C  0.90837176  0.32761982  0.73290726     0.92800
Mg1339     Mg  0.50810676  0.09520377  0.72296177     1.58000
O1340       O  0.55378088  0.15887061  0.75382232    -0.80800
O1341       O  0.96288718  0.03761903  0.68468328    -0.75000
O1342       O  0.84347888  0.39798332  0.75647374    -0.80900
O1343       O  0.54637706  0.39468802  0.77636903    -0.82600
O1344       O  0.65972591  0.11132515  0.74400406    -0.80900
C1345       C  0.93311271  0.99876729  0.69095981     0.87300
O1346       O  0.55721667  0.07883513  0.72268194    -0.88100
O1347       O  0.98225794  0.05783686  0.77565757    -0.88200
O1348       O  0.53846455  0.07995424  0.81363850    -0.75200
Mg1349     Mg  0.90709493  0.41622487  0.72528611     1.58000
O1350       O  0.84319169  0.45644397  0.77622691    -0.82600
H1351       H  0.52302008  0.44182489  0.66749207    -0.06300
O1352       O  0.57674195  0.02598417  0.77674282    -0.87900
H1353       H  0.58746993  0.02919139  0.83367704    -0.06100
H1354       H  0.56608855  0.09041695  0.66590636    -0.06300
C1355       C  0.56938033  0.50940632  0.80925162     0.87200
C1356       C  0.00351348  0.44010095  0.69193428     0.87800
C1357       C  0.56724382  0.07239225  0.69039444     0.87900
H1358       H  0.97955082  0.06722320  0.83221036    -0.06300
O1359       O  0.92653043  0.46498822  0.81528264    -0.75300
Mg1360     Mg  0.59555819  0.09267429  0.77496978     1.58000
H1361       H  0.93754331  0.41845226  0.83432858    -0.06300
C1362       C  0.58707298  0.41697380  0.76990324     0.92900
O1363       O  0.65985182  0.05250741  0.72504175    -0.82600
C1364       C  0.67944349  0.09294620  0.73151338     0.92900
O1365       O  0.88673338  0.34565433  0.72605786    -0.82500
Mg1366     Mg  0.91474813  0.00865427  0.77565073     1.58200
O1367       O  0.60580440  0.45556458  0.75709385    -0.80900
O1368       O  0.95660459  0.11306832  0.72253675    -0.82600
C1369       C  0.66133135  0.33219815  0.85639155    -0.05900
C1370       C  0.69375746  0.32888511  0.87594894    -0.17100
C1371       C  0.69373211  0.32491972  0.91616730     0.11300
C1372       C  0.66294889  0.32923294  0.93839847    -0.05900
C1373       C  0.62570478  0.32237866  0.91851975    -0.17100
C1374       C  0.62361229  0.32161922  0.87798238     0.11300
S1375       S  0.72931979  0.30746688  0.93459328    -0.32100
S1376       S  0.57115722  0.30076362  0.85514508    -0.32100
H1377       H  0.54685874  0.29450375  0.88890373     0.29300
H1378       H  0.70726304  0.28877446  0.96907775     0.29300
H1379       H  0.71736616  0.32545219  0.85968931     0.19900
H1380       H  0.59721471  0.31536027  0.93484653     0.19900
C1381       C  0.66288993  0.34139304  0.68843231    -0.05900
C1382       C  0.62547124  0.30932419  0.66926558    -0.17100
C1383       C  0.62242550  0.30699064  0.62894153     0.11300
C1384       C  0.65930700  0.33570371  0.60634179    -0.05900
C1385       C  0.69227392  0.37268486  0.62526634    -0.17100
C1386       C  0.69345483  0.37696375  0.66551762     0.11300
S1387       S  0.56893555  0.26950526  0.60998400    -0.32100
S1388       S  0.73150927  0.43052990  0.68358380    -0.32100
H1389       H  0.70993024  0.42782531  0.71798751     0.29300
H1390       H  0.57225459  0.29213592  0.57605228     0.29300
H1391       H  0.59711836  0.28686197  0.68584905     0.19900
H1392       H  0.71615600  0.39996571  0.60846453     0.19900
C1393       C  0.83652676  0.16139343  0.89401590    -0.05900
C1394       C  0.87389733  0.19391230  0.87515066    -0.17100
C1395       C  0.87760890  0.19600868  0.83486551     0.11300
C1396       C  0.84115753  0.16693317  0.81197032    -0.05900
C1397       C  0.80828128  0.12978614  0.83080179    -0.17100
C1398       C  0.80644486  0.12570098  0.87107276     0.11300
S1399       S  0.93151639  0.23322594  0.81646487    -0.32100
S1400       S  0.76793787  0.07231619  0.88936138    -0.32100
H1401       H  0.79086823  0.07423631  0.92274267     0.29300
H1402       H  0.92857410  0.21026371  0.78300285     0.29300
H1403       H  0.90182780  0.21665587  0.89198029     0.19900
H1404       H  0.78496857  0.10231801  0.81393295     0.19900
C1405       C  0.84055273  0.16837961  0.64406939    -0.05900
C1406       C  0.80803460  0.13084005  0.62552915    -0.17100
C1407       C  0.80632553  0.12628768  0.58532834     0.11300
C1408       C  0.83612463  0.16185366  0.56201751    -0.05900
C1409       C  0.87327558  0.19488049  0.58076851    -0.17100
C1410       C  0.87671396  0.19777650  0.62105939     0.11300
S1411       S  0.76863062  0.07243915  0.56771916    -0.32100
S1412       S  0.92997304  0.23670707  0.63953677    -0.32100
H1413       H  0.92851210  0.21312176  0.67225997     0.29300
H1414       H  0.79148447  0.07461900  0.53429231     0.29300
H1415       H  0.78504982  0.10331925  0.64262220     0.19900
H1416       H  0.90121375  0.21762024  0.56388908     0.19900
C1417       C  0.83427084  0.66287838  0.01770303     0.30200
C1418       C  0.83467466  0.66286728  0.43817437     0.30200
C1419       C  0.85660348  0.64175891  0.99830994    -0.06000
C1420       C  0.78956837  0.64134094  0.99799209    -0.06800
C1421       C  0.85644763  0.70767810  0.99811099    -0.06700
C1422       C  0.85649574  0.64109972  0.45824116    -0.06000
C1423       C  0.78945658  0.64153569  0.45755843    -0.06800
C1424       C  0.85741803  0.70813139  0.45766777    -0.06700
C1425       C  0.87680199  0.61920587  0.44714406    -0.32000
N1426       N  0.88942813  0.60756256  0.97964069     0.14500
C1427       C  0.87759858  0.62140699  0.01091063    -0.32100
H1428       H  0.88286387  0.61593351  0.04067356     0.16400
C1429       C  0.74698556  0.62624817  0.44614867    -0.31000
N1430       N  0.72197291  0.61524734  0.47827709     0.13200
C1431       C  0.74763870  0.62582792  0.00983546    -0.31000
C1432       C  0.87633173  0.75112739  0.44650017    -0.31300
N1433       N  0.88578620  0.77568022  0.47876626     0.13700
H1434       H  0.88201646  0.76375728  0.41733311     0.16300
C1435       C  0.87296261  0.74956721  0.01013081    -0.31300
H1436       H  0.87578251  0.76071081  0.03956342     0.16300
H1437       H  0.73636453  0.62310298  0.03925782     0.16300
H1438       H  0.88174800  0.61207902  0.41791530     0.16400
H1439       H  0.73505923  0.62343664  0.41693409     0.16300
C1440       C  0.83926214  0.67026699  0.18824107     0.30200
C1441       C  0.83942338  0.66929926  0.26775207     0.30200
C1442       C  0.86054058  0.64765667  0.20764323    -0.06000
C1443       C  0.86131818  0.71501951  0.20816472    -0.06800
C1444       C  0.79383936  0.64780386  0.20790571    -0.06700
C1445       C  0.85991300  0.64682948  0.24767099    -0.06000
C1446       C  0.86158208  0.71412156  0.24859647    -0.06800
C1447       C  0.79429046  0.64795390  0.24838149    -0.06700
C1448       C  0.87895437  0.62439414  0.25961503    -0.32000
N1449       N  0.89201921  0.61238240  0.22794839     0.14500
C1450       C  0.88126117  0.62641851  0.19585282    -0.32100
H1451       H  0.88811284  0.62169742  0.16644628     0.16400
C1452       C  0.87688728  0.75550854  0.26118959    -0.31000
N1453       N  0.88726265  0.78172564  0.23010388     0.13200
C1454       C  0.87631443  0.75749872  0.19754855    -0.31000
C1455       C  0.75197698  0.63015685  0.26052261    -0.31300
N1456       N  0.72580189  0.61770670  0.22913229     0.13700
H1457       H  0.74058352  0.62610612  0.29002648     0.16300
C1458       C  0.75061234  0.62849711  0.19680831    -0.31300
H1459       H  0.73794489  0.62315080  0.16766821     0.16300
H1460       H  0.87876505  0.76988170  0.16856793     0.16300
H1461       H  0.88409364  0.61823702  0.28920395     0.16400
H1462       H  0.87935116  0.76595261  0.29083754     0.16300
C1463       C  0.66150847  0.83324527  0.06223009     0.30200
C1464       C  0.66372490  0.83274635  0.48270449     0.30200
C1465       C  0.64022219  0.85522588  0.04117507    -0.06000
C1466       C  0.70736200  0.85576028  0.04354880    -0.06800
C1467       C  0.64037679  0.78831518  0.04300124    -0.06700
C1468       C  0.64100894  0.85461415  0.50091889    -0.06000
C1469       C  0.70804217  0.85729649  0.50316203    -0.06800
C1470       C  0.64120865  0.78869850  0.50273233    -0.06700
C1471       C  0.62242778  0.87742900  0.48802035    -0.32000
N1472       N  0.60997052  0.89112993  0.01901453     0.14500
C1473       C  0.62108937  0.87841113  0.05174367    -0.32100
H1474       H  0.61568610  0.88545835  0.08085009     0.16400
C1475       C  0.75074648  0.88067033  0.49205064    -0.31000
N1476       N  0.77597494  0.88894782  0.02362269     0.13200
C1477       C  0.75024828  0.87384329  0.05539826    -0.31000
C1478       C  0.62233566  0.74687061  0.49032945    -0.31300
N1479       N  0.61043880  0.72084744  0.02168820     0.13700
H1480       H  0.61740723  0.73600999  0.46062167     0.16300
C1481       C  0.62163313  0.74540939  0.05407589    -0.31300
H1482       H  0.61668380  0.73286006  0.08324069     0.16300
H1483       H  0.76193880  0.87563319  0.08457114     0.16300
H1484       H  0.61911933  0.88476965  0.45832819     0.16400
H1485       H  0.76298285  0.88979551  0.46288556     0.16300
C1486       C  0.66451814  0.83928649  0.23273678     0.30200
C1487       C  0.66359541  0.83682724  0.31226377     0.30200
C1488       C  0.64392576  0.86178564  0.25296478    -0.06000
C1489       C  0.64056139  0.79414742  0.25143845    -0.06800
C1490       C  0.70908063  0.85873740  0.25248165    -0.06700
C1491       C  0.64371566  0.86141574  0.29322365    -0.06000
C1492       C  0.64013015  0.79281947  0.29170642    -0.06800
C1493       C  0.70919308  0.85955869  0.29289953    -0.06700
C1494       C  0.62406594  0.88403295  0.30451508    -0.32000
N1495       N  0.61183671  0.89648146  0.27224129     0.14500
C1496       C  0.62399471  0.88331767  0.24076287    -0.32100
H1497       H  0.61800763  0.88841606  0.21110551     0.16400
C1498       C  0.62247363  0.75010378  0.30257454    -0.31000
N1499       N  0.61214680  0.72605957  0.26996773     0.13200
C1500       C  0.62357770  0.75242735  0.23883720    -0.31000
C1501       C  0.75254018  0.88201590  0.30408762    -0.31300
N1502       N  0.77744983  0.89098636  0.27202856     0.13700
H1503       H  0.76526896  0.89151884  0.33305464     0.16300
C1504       C  0.75131950  0.87594282  0.24067689    -0.31300
H1505       H  0.76266854  0.87871726  0.21127501     0.16300
H1506       H  0.62127306  0.74180773  0.20926178     0.16300
H1507       H  0.61849176  0.89047488  0.33377131     0.16400
H1508       H  0.61838817  0.73763548  0.33172523     0.16300
O1509       O  0.94498241  0.51726736  0.02711030    -0.88200
C1510       C  0.92862052  0.93281626  0.44165697     0.87900
Mg1511     Mg  0.99385309  0.58427766  0.02638013     1.58100
O1512       O  0.97791176  0.92377771  0.02627238    -0.87900
O1513       O  0.92420083  0.96164490  0.06529119    -0.75200
C1514       C  0.67577548  0.59317506  0.48028732     0.92900
O1515       O  0.96288335  0.53595909  0.43569445    -0.75000
O1516       O  0.65699171  0.61412456  0.47385460    -0.82500
Mg1517     Mg  0.90616283  0.99148152  0.47531344     1.58000
C1518       C  0.58903126  0.91547146  0.01613141     0.92900
O1519       O  0.84356281  0.94692927  0.00795940    -0.80800
H1520       H  0.97642553  0.91305832  0.08311147    -0.06100
C1521       C  0.56255938  0.49744071  0.43985508     0.87800
O1522       O  0.53892968  0.57307439  0.06483529    -0.75300
O1523       O  0.92277976  0.94269736  0.47423032    -0.88100
O1524       O  0.54999404  0.89641672  0.00375905    -0.80900
C1525       C  0.91024168  0.82179908  0.48135587     0.93000
C1526       C  0.82199975  0.90857974  0.02116944     0.92800
Mg1527     Mg  0.59178426  0.50661468  0.02389282     1.58000
O1528       O  0.65540641  0.55416770  0.49236444    -0.80800
O1529       O  0.53493290  0.96071844  0.06320979    -0.75000
O1530       O  0.89174641  0.84091154  0.49517127    -0.80900
O1531       O  0.88787115  0.54267525  0.47527797    -0.82600
O1532       O  0.60426036  0.65578714  0.00540149    -0.80900
C1533       C  0.49551609  0.93120277  0.05832491     0.87300
O1534       O  0.57399858  0.55450860  0.02574766    -0.88100
O1535       O  0.55260689  0.98047817  0.47219126    -0.88200
O1536       O  0.57337314  0.53648805  0.43451220    -0.75200
Mg1537     Mg  0.91053101  0.90479858  0.02643620     1.58000
O1538       O  0.95072715  0.84172901  0.47380441    -0.82600
H1539       H  0.93717085  0.52022755  0.08395285    -0.06300
O1540       O  0.51898371  0.57321440  0.47351377    -0.87900
H1541       H  0.52166003  0.58378988  0.41657491    -0.06100
H1542       H  0.58657405  0.56270595  0.08238556    -0.06300
C1543       C  0.00204573  0.56570867  0.44115510     0.87200
C1544       C  0.93504678  0.00062357  0.05956901     0.87800
C1545       C  0.56790009  0.56391872  0.05842130     0.87900
H1546       H  0.56069745  0.97815793  0.41530000    -0.06300
O1547       O  0.95764917  0.92372470  0.43525899    -0.75300
Mg1548     Mg  0.58599821  0.59286777  0.47383051     1.58000
H1549       H  0.90969779  0.93362711  0.41771487    -0.06300
C1550       C  0.90994944  0.58294186  0.48232479     0.92900
O1551       O  0.54547812  0.65515673  0.02654898    -0.82600
C1552       C  0.58588687  0.67490252  0.01917427     0.92900
O1553       O  0.83916283  0.88587143  0.02732821    -0.82500
Mg1554     Mg  0.50325405  0.91294991  0.47338540     1.58200
O1555       O  0.94844175  0.60140565  0.49565332    -0.80900
O1556       O  0.61099132  0.95590450  0.02266812    -0.82600
O1557       O  0.52053546  0.95057372  0.22421413    -0.88200
C1558       C  0.93607765  0.93626439  0.30981086     0.87900
Mg1559     Mg  0.58832860  0.00004186  0.22489117     1.58100
O1560       O  0.92601820  0.98267947  0.22365207    -0.87900
O1561       O  0.96417335  0.92893868  0.18646236    -0.75200
C1562       C  0.59234485  0.68036376  0.26704638     0.92900
O1563       O  0.53994959  0.97025445  0.31498509    -0.75000
O1564       O  0.61485983  0.66321856  0.27397775    -0.82500
Mg1565     Mg  0.99444155  0.91260567  0.27656755     1.58000
C1566       C  0.91621283  0.59141912  0.23008728     0.92900
O1567       O  0.94726684  0.84848216  0.24573017    -0.80800
H1568       H  0.91466166  0.97866976  0.16680941    -0.06100
C1569       C  0.49916612  0.56873889  0.30793748     0.87800
O1570       O  0.57696111  0.54379028  0.18497708    -0.75300
O1571       O  0.94557175  0.92943291  0.27743077    -0.88100
O1572       O  0.89745437  0.55324811  0.24385336    -0.80900
C1573       C  0.82373586  0.91608551  0.26948525     0.93000
C1574       C  0.90837172  0.82761978  0.23290730     0.92800
Mg1575     Mg  0.50810675  0.59520383  0.22296177     1.58000
O1576       O  0.55378092  0.65887051  0.25382237    -0.80800
O1577       O  0.96288702  0.53761894  0.18468326    -0.75000
O1578       O  0.84347898  0.89798343  0.25647381    -0.80900
O1579       O  0.54637701  0.89468792  0.27636899    -0.82600
O1580       O  0.65972588  0.61132514  0.24400411    -0.80900
C1581       C  0.93311254  0.49876721  0.19095986     0.87300
O1582       O  0.55721670  0.57883527  0.22268199    -0.88100
O1583       O  0.98225809  0.55783697  0.27565758    -0.88200
O1584       O  0.53846480  0.57995440  0.31363853    -0.75200
Mg1585     Mg  0.90709498  0.91622491  0.22528616     1.58000
O1586       O  0.84319162  0.95644399  0.27622695    -0.82600
H1587       H  0.52302014  0.94182507  0.16749190    -0.06300
O1588       O  0.57674213  0.52598428  0.27674286    -0.87900
H1589       H  0.58746973  0.52919141  0.33367716    -0.06100
H1590       H  0.56608847  0.59041703  0.16590649    -0.06300
C1591       C  0.56938035  0.00940638  0.30925167     0.87200
C1592       C  0.00351345  0.94010105  0.19193431     0.87800
C1593       C  0.56724379  0.57239241  0.19039445     0.87900
H1594       H  0.97955102  0.56722340  0.33221049    -0.06300
O1595       O  0.92653068  0.96498836  0.31528266    -0.75300
Mg1596     Mg  0.59555834  0.59267437  0.27496979     1.58000
H1597       H  0.93754366  0.91845245  0.33432878    -0.06300
C1598       C  0.58707292  0.91697376  0.26990328     0.92900
O1599       O  0.65985176  0.55250748  0.22504151    -0.82600
C1600       C  0.67944346  0.59294624  0.23151334     0.92900
O1601       O  0.88673330  0.84565426  0.22605790    -0.82500
Mg1602     Mg  0.91474810  0.50865427  0.27565073     1.58200
O1603       O  0.60580434  0.95556455  0.25709391    -0.80900
O1604       O  0.95660451  0.61306831  0.22253658    -0.82600
C1605       C  0.66133132  0.83219819  0.35639157    -0.05900
C1606       C  0.69375732  0.82888498  0.37594899    -0.17100
C1607       C  0.69373206  0.82491959  0.41616733     0.11300
C1608       C  0.66294894  0.82923300  0.43839849    -0.05900
C1609       C  0.62570482  0.82237876  0.41851975    -0.17100
C1610       C  0.62361226  0.82161932  0.37798237     0.11300
S1611       S  0.72931980  0.80746675  0.43459330    -0.32100
S1612       S  0.57115716  0.80076350  0.35514494    -0.32100
H1613       H  0.54685871  0.79450389  0.38890356     0.29300
H1614       H  0.70726321  0.78877454  0.46907789     0.29300
H1615       H  0.71736611  0.82545198  0.35968920     0.19900
H1616       H  0.59721460  0.81536021  0.43484658     0.19900
C1617       C  0.66288998  0.84139304  0.18843229    -0.05900
C1618       C  0.62547136  0.80932423  0.16926556    -0.17100
C1619       C  0.62242549  0.80699062  0.12894155     0.11300
C1620       C  0.65930700  0.83570365  0.10634176    -0.05900
C1621       C  0.69227392  0.87268469  0.12526633    -0.17100
C1622       C  0.69345487  0.87696372  0.16551757     0.11300
S1623       S  0.56893551  0.76950538  0.10998404    -0.32100
S1624       S  0.73150939  0.93052978  0.18358380    -0.32100
H1625       H  0.70993008  0.92782525  0.21798732     0.29300
H1626       H  0.57225463  0.79213609  0.07605234     0.29300
H1627       H  0.59711823  0.78686187  0.18584924     0.19900
H1628       H  0.71615627  0.89996575  0.10846431     0.19900
C1629       C  0.83652676  0.66139356  0.39401588    -0.05900
C1630       C  0.87389732  0.69391246  0.37515065    -0.17100
C1631       C  0.87760890  0.69600881  0.33486550     0.11300
C1632       C  0.84115759  0.66693318  0.31197029    -0.05900
C1633       C  0.80828133  0.62978617  0.33080177    -0.17100
C1634       C  0.80644497  0.62570105  0.37107275     0.11300
S1635       S  0.93151640  0.73322611  0.31646492    -0.32100
S1636       S  0.76793785  0.57231633  0.38936141    -0.32100
H1637       H  0.79086819  0.57423634  0.42274268     0.29300
H1638       H  0.92857408  0.71026394  0.28300284     0.29300
H1639       H  0.90182776  0.71665605  0.39198029     0.19900
H1640       H  0.78496861  0.60231812  0.31393296     0.19900
C1641       C  0.84055275  0.66837961  0.14406940    -0.05900
C1642       C  0.80803462  0.63084006  0.12552920    -0.17100
C1643       C  0.80632556  0.62628774  0.08532838     0.11300
C1644       C  0.83612475  0.66185368  0.06201755    -0.05900
C1645       C  0.87327571  0.69488044  0.08076855    -0.17100
C1646       C  0.87671400  0.69777645  0.12105941     0.11300
S1647       S  0.76863059  0.57243925  0.06771918    -0.32100
S1648       S  0.92997300  0.73670701  0.13953683    -0.32100
H1649       H  0.92851202  0.71312165  0.17226000     0.29300
H1650       H  0.79148449  0.57461912  0.03429237     0.29300
H1651       H  0.78504988  0.60331938  0.14262221     0.19900
H1652       H  0.90121396  0.71762026  0.06388909     0.19900
C1653       C  0.83427081  0.66287840  0.51770299     0.30200
C1654       C  0.83467467  0.66286720  0.93817441     0.30200
C1655       C  0.85660329  0.64175881  0.49830988    -0.06000
C1656       C  0.78956839  0.64134105  0.49799206    -0.06800
C1657       C  0.85644761  0.70767817  0.49811099    -0.06700
C1658       C  0.85649588  0.64109978  0.95824122    -0.06000
C1659       C  0.78945657  0.64153553  0.95755847    -0.06800
C1660       C  0.85741807  0.70813130  0.95766778    -0.06700
C1661       C  0.87680211  0.61920590  0.94714405    -0.32000
N1662       N  0.88942816  0.60756265  0.47964064     0.14500
C1663       C  0.87759840  0.62140692  0.51091058    -0.32100
H1664       H  0.88286360  0.61593338  0.54067351     0.16400
C1665       C  0.74698550  0.62624796  0.94614864    -0.31000
N1666       N  0.72197280  0.61524717  0.97827706     0.13200
C1667       C  0.74763878  0.62582800  0.50983549    -0.31000
C1668       C  0.87633180  0.75112727  0.94650017    -0.31300
N1669       N  0.88578619  0.77568011  0.97876623     0.13700
H1670       H  0.88201663  0.76375717  0.91733301     0.16300
C1671       C  0.87296274  0.74956731  0.51013082    -0.31300
H1672       H  0.87578270  0.76071094  0.53956348     0.16300
H1673       H  0.73636461  0.62310296  0.53925789     0.16300
H1674       H  0.88174811  0.61207917  0.91791552     0.16400
H1675       H  0.73505926  0.62343643  0.91693417     0.16300
C1676       C  0.83926209  0.67026696  0.68824108     0.30200
C1677       C  0.83942337  0.66929927  0.76775208     0.30200
C1678       C  0.86054053  0.64765663  0.70764327    -0.06000
C1679       C  0.86131808  0.71501951  0.70816472    -0.06800
C1680       C  0.79383932  0.64780378  0.70790574    -0.06700
C1681       C  0.85991296  0.64682945  0.74767103    -0.06000
C1682       C  0.86158207  0.71412159  0.74859647    -0.06800
C1683       C  0.79429045  0.64795387  0.74838152    -0.06700
C1684       C  0.87895437  0.62439415  0.75961502    -0.32000
N1685       N  0.89201925  0.61238239  0.72794848     0.14500
C1686       C  0.88126104  0.62641838  0.69585288    -0.32100
H1687       H  0.88811260  0.62169719  0.66644639     0.16400
C1688       C  0.87688740  0.75550860  0.76118957    -0.31000
N1689       N  0.88726267  0.78172569  0.73010386     0.13200
C1690       C  0.87631433  0.75749874  0.69754850    -0.31000
C1691       C  0.75197694  0.63015670  0.76052271    -0.31300
N1692       N  0.72580186  0.61770664  0.72913233     0.13700
H1693       H  0.74058361  0.62610593  0.79002628     0.16300
C1694       C  0.75061229  0.62849702  0.69680835    -0.31300
H1695       H  0.73794486  0.62315080  0.66766828     0.16300
H1696       H  0.87876494  0.76988167  0.66856798     0.16300
H1697       H  0.88409379  0.61823705  0.78920427     0.16400
H1698       H  0.87935143  0.76595274  0.79083753     0.16300
C1699       C  0.66150849  0.83324528  0.56223011     0.30200
C1700       C  0.66372484  0.83274637  0.98270446     0.30200
C1701       C  0.64022217  0.85522585  0.54117508    -0.06000
C1702       C  0.70736201  0.85576028  0.54354884    -0.06800
C1703       C  0.64037689  0.78831519  0.54300129    -0.06700
C1704       C  0.64100891  0.85461416  0.00091888    -0.06000
C1705       C  0.70804215  0.85729654  0.00316199    -0.06800
C1706       C  0.64120853  0.78869851  0.00273230    -0.06700
C1707       C  0.62242777  0.87742906  0.98802031    -0.32000
N1708       N  0.60997047  0.89112988  0.51901447     0.14500
C1709       C  0.62108936  0.87841114  0.55174365    -0.32100
H1710       H  0.61568617  0.88545848  0.58084997     0.16400
C1711       C  0.75074647  0.88067041  0.99205059    -0.31000
N1712       N  0.77597493  0.88894784  0.52362277     0.13200
C1713       C  0.75024824  0.87384322  0.55539826    -0.31000
C1714       C  0.62233556  0.74687060  0.99032940    -0.31300
N1715       N  0.61043873  0.72084741  0.52168826     0.13700
H1716       H  0.61740710  0.73601001  0.96062165     0.16300
C1717       C  0.62163312  0.74540943  0.55407587    -0.31300
H1718       H  0.61668373  0.73285996  0.58324099     0.16300
H1719       H  0.76193883  0.87563302  0.58457150     0.16300
H1720       H  0.61911938  0.88476969  0.95832846     0.16400
H1721       H  0.76298288  0.88979569  0.96288546     0.16300
C1722       C  0.66451814  0.83928648  0.73273678     0.30200
C1723       C  0.66359543  0.83682728  0.81226375     0.30200
C1724       C  0.64392583  0.86178570  0.75296476    -0.06000
C1725       C  0.64056133  0.79414742  0.75143848    -0.06800
C1726       C  0.70908065  0.85873734  0.75248163    -0.06700
C1727       C  0.64371575  0.86141585  0.79322363    -0.06000
C1728       C  0.64013010  0.79281952  0.79170645    -0.06800
C1729       C  0.70919311  0.85955867  0.79289952    -0.06700
C1730       C  0.62406605  0.88403306  0.80451503    -0.32000
N1731       N  0.61183666  0.89648141  0.77224126     0.14500
C1732       C  0.62399461  0.88331757  0.74076281    -0.32100
H1733       H  0.61800738  0.88841580  0.71110553     0.16400
C1734       C  0.62247379  0.75010388  0.80257461    -0.31000
N1735       N  0.61214690  0.72605962  0.76996783     0.13200
C1736       C  0.62357780  0.75242739  0.73883732    -0.31000
C1737       C  0.75254023  0.88201584  0.80408759    -0.31300
N1738       N  0.77744988  0.89098644  0.77202852     0.13700
H1739       H  0.76526904  0.89151876  0.83305461     0.16300
C1740       C  0.75131954  0.87594291  0.74067686    -0.31300
H1741       H  0.76266863  0.87871747  0.71127495     0.16300
H1742       H  0.62127317  0.74180765  0.70926172     0.16300
H1743       H  0.61849190  0.89047506  0.83377134     0.16400
H1744       H  0.61838843  0.73763562  0.83172537     0.16300
O1745       O  0.94498240  0.51726741  0.52711029    -0.88200
C1746       C  0.92862041  0.93281623  0.94165690     0.87900
Mg1747     Mg  0.99385317  0.58427769  0.52638006     1.58100
O1748       O  0.97791172  0.92377768  0.52627243    -0.87900
O1749       O  0.92420105  0.96164507  0.56529133    -0.75200
C1750       C  0.67577535  0.59317490  0.98028727     0.92900
O1751       O  0.96288333  0.53595900  0.93569457    -0.75000
O1752       O  0.65699160  0.61412443  0.97385457    -0.82500
Mg1753     Mg  0.90616278  0.99148152  0.97531343     1.58000
C1754       C  0.58903127  0.91547149  0.51613136     0.92900
O1755       O  0.84356279  0.94692930  0.50795937    -0.80800
H1756       H  0.97642538  0.91305839  0.58311156    -0.06100
C1757       C  0.56255949  0.49744082  0.93985506     0.87800
O1758       O  0.53892976  0.57307446  0.56483522    -0.75300
O1759       O  0.92277960  0.94269728  0.97423024    -0.88100
O1760       O  0.54999404  0.89641679  0.50375903    -0.80900
C1761       C  0.91024172  0.82179895  0.98135590     0.93000
C1762       C  0.82199974  0.90857978  0.52116945     0.92800
Mg1763     Mg  0.59178434  0.50661468  0.52389282     1.58000
O1764       O  0.65540624  0.55416755  0.99236440    -0.80800
O1765       O  0.53493281  0.96071854  0.56320971    -0.75000
O1766       O  0.89174647  0.84091143  0.99517129    -0.80900
O1767       O  0.88787125  0.54267521  0.97527785    -0.82600
O1768       O  0.60426041  0.65578720  0.50540141    -0.80900
C1769       C  0.49551602  0.93120284  0.55832490     0.87300
O1770       O  0.57399873  0.55450868  0.52574767    -0.88100
O1771       O  0.55260679  0.98047806  0.97219121    -0.88200
O1772       O  0.57337316  0.53648814  0.93451215    -0.75200
Mg1773     Mg  0.91053101  0.90479865  0.52643630     1.58000
O1774       O  0.95072718  0.84172888  0.97380442    -0.82600
H1775       H  0.93717114  0.52022788  0.58395294    -0.06300
O1776       O  0.51898371  0.57321451  0.97351373    -0.87900
H1777       H  0.52165991  0.58378963  0.91657492    -0.06100
H1778       H  0.58657414  0.56270612  0.58238555    -0.06300
C1779       C  0.00204576  0.56570864  0.94115510     0.87200
C1780       C  0.93504692  0.00062369  0.55956905     0.87800
C1781       C  0.56790022  0.56391882  0.55842129     0.87900
H1782       H  0.56069761  0.97815805  0.91530013    -0.06300
O1783       O  0.95764898  0.92372454  0.93525896    -0.75300
Mg1784     Mg  0.58599820  0.59286779  0.97383051     1.58000
H1785       H  0.90969780  0.93362723  0.91771476    -0.06300
C1786       C  0.90994943  0.58294177  0.98232482     0.92900
O1787       O  0.54547815  0.65515664  0.52654899    -0.82600
C1788       C  0.58588691  0.67490252  0.51917427     0.92900
O1789       O  0.83916282  0.88587151  0.52732823    -0.82500
Mg1790     Mg  0.50325395  0.91294977  0.97338541     1.58200
O1791       O  0.94844163  0.60140555  0.99565355    -0.80900
O1792       O  0.61099136  0.95590453  0.52266809    -0.82600
O1793       O  0.52053545  0.95057376  0.72421420    -0.88200
C1794       C  0.93607746  0.93626424  0.80981083     0.87900
Mg1795     Mg  0.58832854  0.00004176  0.72489127     1.58100
O1796       O  0.92601817  0.98267949  0.72365200    -0.87900
O1797       O  0.96417351  0.92893876  0.68646233    -0.75200
C1798       C  0.59234484  0.68036381  0.76704647     0.92900
O1799       O  0.53994969  0.97025443  0.81498513    -0.75000
O1800       O  0.61485971  0.66321850  0.77397793    -0.82500
Mg1801     Mg  0.99444156  0.91260574  0.77656761     1.58000
C1802       C  0.91621292  0.59141913  0.73008735     0.92900
O1803       O  0.94726692  0.84848220  0.74573015    -0.80800
H1804       H  0.91466183  0.97866978  0.66680924    -0.06100
C1805       C  0.49916603  0.56873896  0.80793748     0.87800
O1806       O  0.57696132  0.54379040  0.68497703    -0.75300
O1807       O  0.94557171  0.92943296  0.77743073    -0.88100
O1808       O  0.89745442  0.55324806  0.74385333    -0.80900
C1809       C  0.82373591  0.91608552  0.76948521     0.93000
C1810       C  0.90837178  0.82761982  0.73290726     0.92800
Mg1811     Mg  0.50810682  0.59520377  0.72296177     1.58000
O1812       O  0.55378095  0.65887059  0.75382232    -0.80800
O1813       O  0.96288719  0.53761896  0.68468331    -0.75000
O1814       O  0.84347893  0.89798333  0.75647376    -0.80900
O1815       O  0.54637702  0.89468800  0.77636901    -0.82600
O1816       O  0.65972585  0.61132521  0.74400403    -0.80900
C1817       C  0.93311269  0.49876725  0.69095983     0.87300
O1818       O  0.55721666  0.57883514  0.72268198    -0.88100
O1819       O  0.98225802  0.55783700  0.77565760    -0.88200
O1820       O  0.53846473  0.57995445  0.81363849    -0.75200
Mg1821     Mg  0.90709495  0.91622488  0.72528610     1.58000
O1822       O  0.84319178  0.95644401  0.77622689    -0.82600
H1823       H  0.52302029  0.94182523  0.66749208    -0.06300
O1824       O  0.57674197  0.52598418  0.77674283    -0.87900
H1825       H  0.58746983  0.52919152  0.83367724    -0.06100
H1826       H  0.56608846  0.59041699  0.66590652    -0.06300
C1827       C  0.56938044  0.00940635  0.80925165     0.87200
C1828       C  0.00351363  0.94010116  0.69193429     0.87800
C1829       C  0.56724384  0.57239241  0.69039443     0.87900
H1830       H  0.97955104  0.56722349  0.83221040    -0.06300
O1831       O  0.92653050  0.96498822  0.81528267    -0.75300
Mg1832     Mg  0.59555823  0.59267430  0.77496978     1.58000
H1833       H  0.93754335  0.91845225  0.83432858    -0.06300
C1834       C  0.58707294  0.91697375  0.76990325     0.92900
O1835       O  0.65985172  0.55250747  0.72504176    -0.82600
C1836       C  0.67944342  0.59294625  0.73151341     0.92900
O1837       O  0.88673340  0.84565433  0.72605786    -0.82500
Mg1838     Mg  0.91474809  0.50865426  0.77565072     1.58200
O1839       O  0.60580439  0.95556453  0.75709387    -0.80900
O1840       O  0.95660463  0.61306829  0.72253674    -0.82600
C1841       C  0.66133129  0.83219812  0.85639156    -0.05900
C1842       C  0.69375740  0.82888506  0.87594893    -0.17100
C1843       C  0.69373210  0.82491974  0.91616730     0.11300
C1844       C  0.66294892  0.82923305  0.93839847    -0.05900
C1845       C  0.62570476  0.82237866  0.91851977    -0.17100
C1846       C  0.62361225  0.82161920  0.87798239     0.11300
S1847       S  0.72931979  0.80746685  0.93459328    -0.32100
S1848       S  0.57115721  0.80076355  0.85514508    -0.32100
H1849       H  0.54685871  0.79450368  0.88890372     0.29300
H1850       H  0.70726313  0.78877464  0.96907783     0.29300
H1851       H  0.71736604  0.82545211  0.85968929     0.19900
H1852       H  0.59721461  0.81536016  0.93484657     0.19900
C1853       C  0.66288996  0.84139305  0.68843231    -0.05900
C1854       C  0.62547130  0.80932423  0.66926558    -0.17100
C1855       C  0.62242550  0.80699067  0.62894154     0.11300
C1856       C  0.65930703  0.83570369  0.60634179    -0.05900
C1857       C  0.69227395  0.87268479  0.62526635    -0.17100
C1858       C  0.69345490  0.87696374  0.66551761     0.11300
S1859       S  0.56893558  0.76950521  0.60998400    -0.32100
S1860       S  0.73150933  0.93052988  0.68358380    -0.32100
H1861       H  0.70993019  0.92782529  0.71798743     0.29300
H1862       H  0.57225461  0.79213586  0.57605227     0.29300
H1863       H  0.59711836  0.78686191  0.68584913     0.19900
H1864       H  0.71615614  0.89996575  0.60846446     0.19900
C1865       C  0.83652671  0.66139354  0.89401590    -0.05900
C1866       C  0.87389725  0.69391235  0.87515063    -0.17100
C1867       C  0.87760893  0.69600866  0.83486550     0.11300
C1868       C  0.84115757  0.66693313  0.81197030    -0.05900
C1869       C  0.80828136  0.62978612  0.83080178    -0.17100
C1870       C  0.80644494  0.62570105  0.87107275     0.11300
S1871       S  0.93151643  0.73322588  0.81646488    -0.32100
S1872       S  0.76793800  0.57231634  0.88936141    -0.32100
H1873       H  0.79086828  0.57423646  0.92274276     0.29300
H1874       H  0.92857412  0.71026365  0.78300285     0.29300
H1875       H  0.90182788  0.71665601  0.89198036     0.19900
H1876       H  0.78496865  0.60231794  0.81393296     0.19900
C1877       C  0.84055272  0.66837963  0.64406939    -0.05900
C1878       C  0.80803451  0.63084009  0.62552916    -0.17100
C1879       C  0.80632545  0.62628771  0.58532834     0.11300
C1880       C  0.83612467  0.66185364  0.56201752    -0.05900
C1881       C  0.87327564  0.69488049  0.58076851    -0.17100
C1882       C  0.87671397  0.69777652  0.62105939     0.11300
S1883       S  0.76863067  0.57243911  0.56771916    -0.32100
S1884       S  0.92997310  0.73670704  0.63953678    -0.32100
H1885       H  0.92851208  0.71312169  0.67225997     0.29300
H1886       H  0.79148442  0.57461907  0.53429221     0.29300
H1887       H  0.78504975  0.60331938  0.64262217     0.19900
H1888       H  0.90121374  0.71762016  0.56388913     0.19900
loop_ 
_geom_bond_atom_site_label_1 
_geom_bond_atom_site_label_2 
_geom_bond_distance 
_geom_bond_site_symmetry_2 
_ccdc_geom_bond_type 
C1            C3   1.524   1_554  S
C1            C5   1.542   1_554  S
C1            C4   1.536   1_554  S
C1          C228   1.536       .  S
C2            C6   1.535       .  S
C2            C8   1.557       .  S
C2            C7   1.547       .  S
C2          C213   1.532       .  S
C3           C11   1.370   1_556  A
C3          C242   1.387       .  A
C4           C15   1.372   1_556  A
C4          C243   1.399       .  A
C5           C19   1.376   1_556  A
C5          C244   1.400       .  A
C6            C9   1.383       .  A
C6          C239   1.387       .  A
C7           C13   1.386       .  A
C7          C240   1.399       .  A
C8           C16   1.390       .  A
C8          C241   1.400       .  A
C9           H22   1.082       .  S
C9          N246   1.357       .  A
N10          C11   1.353   1_556  A
N10         C245   1.357       .  A
N10         C370   1.425       .  S
C11          H12   1.083       .  S
C13          H23   1.082       .  S
C13          N14   1.354       .  A
N14         C251   1.351       .  A
N14          C98   1.425       .  S
C15          H21   1.082       .  S
C15         N250   1.351   1_554  A
C16          H18   1.082       .  S
C16          N17   1.358       .  A
N17         C255   1.351       .  A
N17         C109   1.430       .  S
C19          H20   1.082       .  S
C19         N253   1.351   1_554  A
C24          C26   1.533       .  S
C24          C28   1.555       .  S
C24          C27   1.549       .  S
C24         C225   1.532       .  S
C25          C29   1.522       .  S
C25          C31   1.543       .  S
C25          C30   1.536       .  S
C25         C216   1.535       .  S
C26          C34   1.383       .  A
C26          C29   1.385       .  A
C27          C38   1.388       .  A
C27          C30   1.400       .  A
C28          C42   1.389       .  A
C28          C31   1.401       .  A
C29          C32   1.369       .  A
C30          C36   1.373       .  A
C31          C39   1.376       .  A
C32          H45   1.083       .  S
C32          N33   1.352       .  A
N33          C34   1.356       .  A
N33         C150   1.423       .  S
C34          H35   1.082       .  S
C36          H46   1.082       .  S
C36          N37   1.350       .  A
N37          C38   1.356       .  A
N37         C158   1.427       .  S
C38          H44   1.082       .  S
C39          H41   1.082       .  S
C39          N40   1.353       .  A
N40          C42   1.357       .  A
N40         C184   1.429       .  S
C42          H43   1.082       .  S
C47          C49   1.541       .  S
C47          C51   1.545       .  S
C47          C50   1.553       .  S
C47         C204   1.534       .  S
C48          C52   1.539       .  S
C48          C54   1.527       .  S
C48          C53   1.538       .  S
C48         C192   1.538       .  S
C49          C57   1.384       .  A
C49         C288   1.394       .  A
C50          C61   1.389       .  A
C50         C289   1.398       .  A
C51          C65   1.387       .  A
C51         C290   1.394       .  A
C52          C55   1.377       .  A
C52         C285   1.394       .  A
C53          C59   1.370       .  A
C53         C286   1.398       .  A
C54          C62   1.369       .  A
C54         C287   1.394       .  A
C55          H68   1.082       .  S
C55         N292   1.354       .  A
N56          C57   1.357       .  A
N56         C291   1.354   1_554  A
N56         C102   1.429       .  S
C57          H58   1.082       .  S
C59          H69   1.082       .  S
C59         N296   1.351       .  A
N60          C61   1.357       .  A
N60         C295   1.351   1_554  A
N60         C110   1.427       .  S
C61          H67   1.082       .  S
C62          H64   1.083       .  S
C62         N299   1.351       .  A
N63          C65   1.357       .  A
N63         C298   1.351   1_554  A
N63         C136   1.425       .  S
C65          H66   1.082       .  S
C70          C72   1.528       .  S
C70          C74   1.537       .  S
C70          C73   1.538       .  S
C70         C201   1.537       .  S
C71          C75   1.547       .  S
C71          C77   1.555       .  S
C71          C76   1.538       .  S
C71         C189   1.533       .  S
C72          C80   1.370       .  A
C72          C75   1.393       .  A
C73          C84   1.375       .  A
C73          C76   1.394       .  A
C74          C88   1.373       .  A
C74          C77   1.399       .  A
C75          C78   1.388       .  A
C76          C82   1.383       .  A
C77          C85   1.389       .  A
C78          H91   1.082       .  S
C78          N79   1.358       .  A
N79          C80   1.352       .  A
N79         C182   1.427       .  S
C80          H81   1.083       .  S
C82          H92   1.082       .  S
C82          N83   1.356       .  A
N83          C84   1.352       .  A
N83         C146   1.425       .  S
C84          H90   1.082       .  S
C85          H87   1.082       .  S
C85          N86   1.356       .  A
N86          C88   1.352       .  A
N86         C157   1.428       .  S
C88          H89   1.082       .  S
O93         Mg95   2.133       .  S
O93        Mg809   2.164   1_544  S
O93         C600   1.235       .  S
C94         H133   1.081       .  S
C94         O107   1.235       .  S
C94         O131   1.268       .  A
Mg95       O1304   2.171   1_554  S
Mg95        O375   2.286   1_554  S
Mg95       O1079   2.256       .  S
Mg95       O1050   2.288       .  S
O96        Mg121   2.151       .  S
O96       Mg1318   2.172   1_554  S
O96        C1061   1.235       .  S
O97         C128   1.268       .  A
O97        Mg121   2.291       .  S
C98         O100   1.269       .  A
C98         O112   1.276       .  A
O99         C127   1.268       .  A
O99        Mg573   2.286   1_545  S
O100       Mg132   2.254       .  S
Mg101       O107   2.138       .  S
Mg101       O801   2.164       .  S
Mg101       O571   2.286       .  S
Mg101       O587   2.265       .  S
Mg101       O339   2.276       .  S
C102        O140   1.272       .  A
C102        O108   1.276       .  A
O103        C110   1.272       .  A
O103       Mg337   2.276   1_554  S
H104       C1061   1.081       .  S
C105        H602   1.081       .  S
C105        O591   1.235       .  S
C105        O120   1.269   1_565  A
O106        C129   1.267       .  A
O106      Mg1039   2.288   1_455  S
O107       Mg357   2.167       .  S
O108       Mg374   2.308   1_554  S
C109        O122   1.274       .  A
C109        O114   1.277       .  A
C110        O137   1.276       .  A
Mg111       O118   2.138       .  S
Mg111       O827   2.168   1_544  S
Mg111       O348   2.303   1_554  S
Mg111       O585   2.295   1_545  S
Mg111       O612   2.272   1_545  S
O112       Mg347   2.303       .  S
O113        C117   1.269   1_455  A
O113       Mg583   2.295       .  S
O114       Mg357   2.316       .  S
O115        C134   1.271       .  A
O115       Mg573   2.265   1_545  S
O116        C136   1.273       .  A
O116       Mg368   2.296   1_554  S
C117       H1048   1.081       .  S
C117       O1040   1.235       .  S
O118       Mg368   2.169   1_554  S
O118        C129   1.234       .  S
O119       Mg138   2.151       .  S
O119       Mg819   2.168       .  S
O119        C577   1.235       .  S
O120       Mg132   2.297       .  S
Mg121       O343   2.167   1_554  S
Mg121       O137   2.290       .  S
Mg121       O350   2.316   1_554  S
O122      Mg1082   2.272       .  S
H123        C600   1.081       .  S
O124       Mg132   2.132       .  S
O124      Mg1275   2.171   1_455  S
O124       C1071   1.236       .  S
H125       C1071   1.081       .  S
H126        C129   1.081       .  S
C127       H1069   1.081       .  S
C127       O1068   1.236       .  S
C128        H595   1.081       .  S
C128        O565   1.235       .  S
H130        C577   1.081       .  S
O131      Mg1082   2.289       .  S
Mg132       O354   2.169       .  S
Mg132       O352   2.296       .  S
C134        N246   1.425       .  S
C134        O139   1.272       .  A
O135        C136   1.270       .  A
O135      Mg1039   2.256   1_455  S
Mg138      O1276   2.172   1_455  S
Mg138       O344   2.308       .  S
Mg138      O1066   2.272   1_455  S
Mg138      O1075   2.289   1_455  S
O139       Mg331   2.286       .  S
O140       Mg583   2.272       .  S
O141       Mg143   2.151       .  S
O141      Mg1093   2.169   1_455  S
O141       C1120   1.235       .  S
C142        H181   1.081       .  S
C142        O155   1.235       .  S
C142        O179   1.268       .  A
Mg143       O644   2.167       .  S
Mg143       O187   2.294       .  S
Mg143       O655   2.272       .  S
Mg143       O626   2.288       .  S
O144       Mg169   2.133       .  S
O144       Mg658   2.167       .  S
O144        C637   1.235       .  S
O145        C176   1.269       .  A
O145       Mg169   2.294       .  S
C146        O148   1.272       .  A
C146        O160   1.273       .  A
O147        C175   1.269       .  A
O147      Mg1093   2.295   1_455  S
O148       Mg180   2.272       .  S
Mg149       O155   2.139       .  S
Mg149      O1085   2.169       .  S
Mg149       O151   2.309       .  S
Mg149      O1091   2.295       .  S
Mg149      O1107   2.274       .  S
C150        O188   1.271       .  A
C150        O156   1.273       .  A
O151        C158   1.277       .  A
H152        C637   1.081       .  S
C153       H1122   1.081       .  S
C153       O1111   1.235       .  S
C153        O168   1.268   1_655  A
O154        C177   1.267       .  A
O154       Mg615   2.288       .  S
O155       Mg169   2.171       .  S
O156       Mg186   2.287       .  S
C157        O170   1.272       .  A
C157        O162   1.274       .  A
C158        O185   1.270       .  A
Mg159       O166   2.136       .  S
Mg159      O1111   2.169   1_455  S
Mg159       O160   2.287       .  S
Mg159      O1105   2.289   1_455  S
Mg159      O1132   2.258   1_455  S
O161        C165   1.268   1_545  A
O161      Mg1103   2.289       .  S
O162       Mg169   2.298       .  S
O163        C182   1.273       .  A
O163      Mg1093   2.274   1_455  S
O164        C184   1.275       .  A
O164       Mg180   2.308       .  S
C165        H624   1.081       .  S
C165        O616   1.235       .  S
O166       Mg180   2.170       .  S
O166        C177   1.234       .  S
O167       Mg186   2.141       .  S
O167      Mg1103   2.169       .  S
O167       C1097   1.235       .  S
O168       Mg180   2.292       .  S
Mg169       O185   2.262       .  S
O170       Mg658   2.271       .  S
H171       C1120   1.081       .  S
O172       Mg180   2.143       .  S
O172       Mg615   2.167       .  S
O172        C647   1.236       .  S
H173        C647   1.081       .  S
H174        C177   1.081       .  S
C175        H645   1.081       .  S
C175        O644   1.236       .  S
C176       H1115   1.081       .  S
C176       O1085   1.235       .  S
H178       C1097   1.081       .  S
O179       Mg658   2.288       .  S
C182        O187   1.273       .  A
O183        C184   1.273       .  A
O183       Mg615   2.272       .  S
Mg186       O616   2.167   1_545  S
Mg186       O642   2.271   1_545  S
Mg186       O651   2.288   1_545  S
O188      Mg1103   2.258       .  S
C189        C190   1.406       .  A
C189        C194   1.418       .  A
C190        C191   1.399       .  A
C190        H199   1.080       .  S
C191        C192   1.424       .  A
C191        S195   1.811       .  S
C192        C193   1.409       .  A
C193        C194   1.404       .  A
C193        H200   1.080       .  S
C194        S196   1.811       .  S
S195        H198   1.398       .  S
S196        H197   1.406       .  S
C201        C202   1.407       .  A
C201        C206   1.422       .  A
C202        C203   1.399       .  A
C202        H211   1.082       .  S
C203        C204   1.422       .  A
C203        S207   1.808       .  S
C204        C205   1.408       .  A
C205        C206   1.400       .  A
C205        H212   1.081       .  S
C206        S208   1.810       .  S
S207        H210   1.399       .  S
S208        H209   1.398       .  S
C213        C214   1.406       .  A
C213        C218   1.423       .  A
C214        C215   1.399       .  A
C214        H223   1.082       .  S
C215        C216   1.423       .  A
C215        S219   1.809       .  S
C216        C217   1.407       .  A
C217        C218   1.399       .  A
C217        H224   1.082       .  S
C218        S220   1.809       .  S
S219        H222   1.399       .  S
S220        H221   1.399       .  S
C225        C226   1.407       .  A
C225        C230   1.422       .  A
C226        C227   1.399       .  A
C226        H235   1.081       .  S
C227        C228   1.422       .  A
C227        S231   1.809       .  S
C228        C229   1.408       .  A
C229        C230   1.399       .  A
C229        H236   1.082       .  S
C230        S232   1.808       .  S
S231        H234   1.399       .  S
S232        H233   1.400       .  S
C237        C239   1.524       .  S
C237        C241   1.542       .  S
C237        C240   1.536       .  S
C237        C464   1.536       .  S
C238        C242   1.535       .  S
C238        C244   1.557       .  S
C238        C243   1.547       .  S
C238        C449   1.532       .  S
C239        C247   1.370       .  A
C240        C251   1.372       .  A
C241        C255   1.376       .  A
C242        C245   1.383       .  A
C243        C249   1.386       .  A
C244        C252   1.390       .  A
C245        H258   1.082       .  S
N246        C247   1.353       .  A
C247        H248   1.083       .  S
C249        H259   1.082       .  S
C249        N250   1.354       .  A
N250        C334   1.425       .  S
C251        H257   1.082       .  S
C252        H254   1.082       .  S
C252        N253   1.358       .  A
N253        C345   1.430       .  S
C255        H256   1.082       .  S
C260        C262   1.533       .  S
C260        C264   1.555       .  S
C260        C263   1.549       .  S
C260        C461   1.532       .  S
C261        C265   1.522       .  S
C261        C267   1.543       .  S
C261        C266   1.536       .  S
C261        C452   1.535       .  S
C262        C270   1.383       .  A
C262        C265   1.385       .  A
C263        C274   1.388       .  A
C263        C266   1.400       .  A
C264        C278   1.389       .  A
C264        C267   1.401       .  A
C265        C268   1.369       .  A
C266        C272   1.373       .  A
C267        C275   1.376       .  A
C268        H281   1.083       .  S
C268        N269   1.352       .  A
N269        C270   1.356       .  A
N269        C386   1.423       .  S
C270        H271   1.082       .  S
C272        H282   1.082       .  S
C272        N273   1.350       .  A
N273        C274   1.356       .  A
N273        C394   1.427       .  S
C274        H280   1.082       .  S
C275        H277   1.082       .  S
C275        N276   1.353       .  A
N276        C278   1.357       .  A
N276        C420   1.429       .  S
C278        H279   1.082       .  S
C283        C285   1.541       .  S
C283        C287   1.545       .  S
C283        C286   1.553       .  S
C283        C440   1.534       .  S
C284        C288   1.539   1_556  S
C284        C290   1.527   1_556  S
C284        C289   1.538   1_556  S
C284        C428   1.538       .  S
C285        C293   1.384       .  A
C286        C297   1.389       .  A
C287        C301   1.387       .  A
C288        C291   1.377   1_554  A
C289        C295   1.370   1_554  A
C290        C298   1.369   1_554  A
C291        H304   1.082       .  S
N292        C293   1.357       .  A
N292        C338   1.429       .  S
C293        H294   1.082       .  S
C295        H305   1.082       .  S
N296        C297   1.357       .  A
N296        C346   1.427       .  S
C297        H303   1.082       .  S
C298        H300   1.083       .  S
N299        C301   1.357       .  A
N299        C372   1.425       .  S
C301        H302   1.082       .  S
C306        C308   1.528       .  S
C306        C310   1.537       .  S
C306        C309   1.538       .  S
C306        C437   1.537       .  S
C307        C311   1.547       .  S
C307        C313   1.555       .  S
C307        C312   1.538       .  S
C307        C425   1.533       .  S
C308        C316   1.370       .  A
C308        C311   1.393       .  A
C309        C320   1.375       .  A
C309        C312   1.394       .  A
C310        C324   1.373       .  A
C310        C313   1.399       .  A
C311        C314   1.388       .  A
C312        C318   1.383       .  A
C313        C321   1.389       .  A
C314        H327   1.082       .  S
C314        N315   1.358       .  A
N315        C316   1.352       .  A
N315        C418   1.427       .  S
C316        H317   1.083       .  S
C318        H328   1.082       .  S
C318        N319   1.356       .  A
N319        C320   1.352       .  A
N319        C382   1.425       .  S
C320        H326   1.082       .  S
C321        H323   1.082       .  S
C321        N322   1.356       .  A
N322        C324   1.352       .  A
N322        C393   1.428       .  S
C324        H325   1.082       .  S
O329       Mg331   2.133       .  S
O329       Mg573   2.164   1_545  S
O329        C836   1.235       .  S
C330        H369   1.081       .  S
C330        O343   1.235       .  S
C330        O367   1.268       .  A
Mg331      O1068   2.171       .  S
Mg331      O1315   2.256       .  S
Mg331      O1286   2.288       .  S
O332      Mg1082   2.172       .  S
O332       Mg357   2.151       .  S
O332       C1297   1.235       .  S
O333        C364   1.268       .  A
O333       Mg357   2.291       .  S
C334        O336   1.269       .  A
C334        O348   1.276       .  A
O335        C363   1.268       .  A
O335       Mg809   2.286   1_545  S
O336       Mg368   2.254       .  S
Mg337       O565   2.164   1_556  S
Mg337       O343   2.138       .  S
Mg337       O807   2.286       .  S
Mg337       O823   2.265       .  S
C338        O376   1.272       .  A
C338        O344   1.276       .  A
O339        C346   1.272       .  A
H340       C1297   1.081       .  S
C341        H838   1.081       .  S
C341        O827   1.235       .  S
C341        O356   1.269   1_565  A
O342        C365   1.267       .  A
O342      Mg1275   2.288   1_455  S
C345        O358   1.274       .  A
C345        O350   1.277       .  A
C346        O373   1.276       .  A
Mg347       O354   2.138       .  S
Mg347       O591   2.168   1_545  S
Mg347       O821   2.295   1_545  S
Mg347       O848   2.272   1_545  S
O349        C353   1.269   1_455  A
O349       Mg819   2.295       .  S
O351        C370   1.271       .  A
O351       Mg809   2.265   1_545  S
O352        C372   1.273       .  A
C353       H1284   1.081       .  S
C353       O1276   1.235       .  S
O354        C365   1.234       .  S
O355       Mg583   2.168   1_556  S
O355       Mg374   2.151       .  S
O355        C813   1.235       .  S
O356       Mg368   2.297       .  S
Mg357       O373   2.290       .  S
O358      Mg1318   2.272       .  S
H359        C836   1.081       .  S
O360      Mg1039   2.171   1_456  S
O360       Mg368   2.132       .  S
O360       C1307   1.236       .  S
H361       C1307   1.081       .  S
H362        C365   1.081       .  S
C363       H1305   1.081       .  S
C363       O1304   1.236       .  S
C364        H831   1.081       .  S
C364        O801   1.235       .  S
H366        C813   1.081       .  S
O367      Mg1318   2.289       .  S
C370        O375   1.272       .  A
O371        C372   1.270       .  A
O371      Mg1275   2.256   1_455  S
Mg374      O1040   2.172   1_456  S
Mg374      O1302   2.272   1_455  S
Mg374      O1311   2.289   1_455  S
O376       Mg819   2.272       .  S
O377       Mg379   2.151       .  S
O377      Mg1329   2.169   1_455  S
O377       C1356   1.235       .  S
C378        H417   1.081       .  S
C378        O391   1.235       .  S
C378        O415   1.268       .  A
Mg379       O880   2.167       .  S
Mg379       O423   2.294       .  S
Mg379       O891   2.272       .  S
Mg379       O862   2.288       .  S
O380       Mg894   2.167       .  S
O380       Mg405   2.133       .  S
O380        C873   1.235       .  S
O381        C412   1.269       .  A
O381       Mg405   2.294       .  S
C382        O384   1.272       .  A
C382        O396   1.273       .  A
O383        C411   1.269       .  A
O383      Mg1329   2.295   1_455  S
O384       Mg416   2.272       .  S
Mg385      O1321   2.169       .  S
Mg385       O391   2.139       .  S
Mg385      O1327   2.295       .  S
Mg385      O1343   2.274       .  S
Mg385       O387   2.309       .  S
C386        O424   1.271       .  A
C386        O392   1.273       .  A
O387        C394   1.277       .  A
H388        C873   1.081       .  S
C389       H1358   1.081       .  S
C389       O1347   1.235       .  S
C389        O404   1.268   1_655  A
O390        C413   1.267       .  A
O390       Mg851   2.288       .  S
O391       Mg405   2.171       .  S
O392       Mg422   2.287       .  S
C393        O406   1.272       .  A
C393        O398   1.274       .  A
C394        O421   1.270       .  A
Mg395       O402   2.136       .  S
Mg395      O1347   2.169   1_455  S
Mg395       O396   2.287       .  S
Mg395      O1341   2.289   1_455  S
Mg395      O1368   2.258   1_455  S
O397        C401   1.268   1_545  A
O397      Mg1339   2.289       .  S
O398       Mg405   2.298       .  S
O399        C418   1.273       .  A
O399      Mg1329   2.274   1_455  S
O400        C420   1.275       .  A
O400       Mg416   2.308       .  S
C401        H860   1.081       .  S
C401        O852   1.235       .  S
O402       Mg416   2.170       .  S
O402        C413   1.234       .  S
O403      Mg1339   2.169       .  S
O403       Mg422   2.141       .  S
O403       C1333   1.235       .  S
O404       Mg416   2.292       .  S
Mg405       O421   2.262       .  S
O406       Mg894   2.271       .  S
H407       C1356   1.081       .  S
O408       Mg851   2.167       .  S
O408       Mg416   2.143       .  S
O408        C883   1.236       .  S
H409        C883   1.081       .  S
H410        C413   1.081       .  S
C411        H881   1.081       .  S
C411        O880   1.236       .  S
C412       H1351   1.081       .  S
C412       O1321   1.235       .  S
H414       C1333   1.081       .  S
O415       Mg894   2.288       .  S
C418        O423   1.273       .  A
O419        C420   1.273       .  A
O419       Mg851   2.272       .  S
Mg422       O852   2.167   1_545  S
Mg422       O878   2.271   1_545  S
Mg422       O887   2.288   1_545  S
O424      Mg1339   2.258       .  S
C425        C426   1.406       .  A
C425        C430   1.418       .  A
C426        C427   1.399       .  A
C426        H435   1.080       .  S
C427        C428   1.424       .  A
C427        S431   1.811       .  S
C428        C429   1.409       .  A
C429        C430   1.404       .  A
C429        H436   1.080       .  S
C430        S432   1.811       .  S
S431        H434   1.398       .  S
S432        H433   1.406       .  S
C437        C438   1.407       .  A
C437        C442   1.422       .  A
C438        C439   1.399       .  A
C438        H447   1.082       .  S
C439        C440   1.422       .  A
C439        S443   1.808       .  S
C440        C441   1.408       .  A
C441        C442   1.400       .  A
C441        H448   1.081       .  S
C442        S444   1.810       .  S
S443        H446   1.399       .  S
S444        H445   1.398       .  S
C449        C450   1.406       .  A
C449        C454   1.423       .  A
C450        C451   1.399       .  A
C450        H459   1.082       .  S
C451        C452   1.423       .  A
C451        S455   1.809       .  S
C452        C453   1.407       .  A
C453        C454   1.399       .  A
C453        H460   1.082       .  S
C454        S456   1.809       .  S
S455        H458   1.399       .  S
S456        H457   1.399       .  S
C461        C462   1.407       .  A
C461        C466   1.422       .  A
C462        C463   1.399       .  A
C462        H471   1.081       .  S
C463        C464   1.422       .  A
C463        S467   1.809       .  S
C464        C465   1.408       .  A
C465        C466   1.399       .  A
C465        H472   1.082       .  S
C466        S468   1.808       .  S
S467        H470   1.399       .  S
S468        H469   1.400       .  S
C473        C475   1.524   1_554  S
C473        C477   1.542   1_554  S
C473        C476   1.536   1_554  S
C473        C700   1.536       .  S
C474        C478   1.535       .  S
C474        C480   1.557       .  S
C474        C479   1.547       .  S
C474        C685   1.532       .  S
C475        C483   1.370   1_556  A
C475        C714   1.387       .  A
C476        C487   1.372   1_556  A
C476        C715   1.399       .  A
C477        C491   1.376   1_556  A
C477        C716   1.400       .  A
C478        C711   1.387       .  A
C478        C481   1.383       .  A
C479        C712   1.399       .  A
C479        C485   1.386       .  A
C480        C713   1.400       .  A
C480        C488   1.390       .  A
C481        H494   1.082       .  S
C481        N718   1.357       .  A
N482        C717   1.357       .  A
N482        C483   1.353   1_556  A
N482        C842   1.425       .  S
C483        H484   1.083       .  S
C485        H495   1.082       .  S
C485        N486   1.354       .  A
N486        C723   1.351       .  A
N486        C570   1.425       .  S
C487        H493   1.082       .  S
C487        N722   1.351   1_554  A
C488        H490   1.082       .  S
C488        N489   1.358       .  A
N489        C727   1.351       .  A
N489        C581   1.430       .  S
C491        H492   1.082       .  S
C491        N725   1.351   1_554  A
C496        C498   1.533       .  S
C496        C500   1.555       .  S
C496        C499   1.549       .  S
C496        C697   1.532       .  S
C497        C501   1.522       .  S
C497        C503   1.543       .  S
C497        C502   1.536       .  S
C497        C688   1.535       .  S
C498        C506   1.383       .  A
C498        C501   1.385       .  A
C499        C510   1.388       .  A
C499        C502   1.400       .  A
C500        C514   1.389       .  A
C500        C503   1.401       .  A
C501        C504   1.369       .  A
C502        C508   1.373       .  A
C503        C511   1.376       .  A
C504        H517   1.083       .  S
C504        N505   1.352       .  A
N505        C506   1.356       .  A
N505        C622   1.423       .  S
C506        H507   1.082       .  S
C508        H518   1.082       .  S
C508        N509   1.350       .  A
N509        C510   1.356       .  A
N509        C630   1.427       .  S
C510        H516   1.082       .  S
C511        H513   1.082       .  S
C511        N512   1.353       .  A
N512        C514   1.357       .  A
N512        C656   1.429       .  S
C514        H515   1.082       .  S
C519        C521   1.541       .  S
C519        C523   1.545       .  S
C519        C522   1.553       .  S
C519        C676   1.534       .  S
C520        C524   1.539       .  S
C520        C526   1.527       .  S
C520        C525   1.538       .  S
C520        C664   1.538       .  S
C521        C529   1.384       .  A
C521        C760   1.394       .  A
C522        C533   1.389       .  A
C522        C761   1.398       .  A
C523        C537   1.387       .  A
C523        C762   1.394       .  A
C524        C757   1.394       .  A
C524        C527   1.377       .  A
C525        C758   1.398       .  A
C525        C531   1.370       .  A
C526        C759   1.394       .  A
C526        C534   1.369       .  A
C527        H540   1.082       .  S
C527        N764   1.354       .  A
N528        C763   1.354   1_554  A
N528        C529   1.357       .  A
N528        C574   1.429       .  S
C529        H530   1.082       .  S
C531        H541   1.082       .  S
C531        N768   1.351       .  A
N532        C767   1.351   1_554  A
N532        C533   1.357       .  A
N532        C582   1.427       .  S
C533        H539   1.082       .  S
C534        H536   1.083       .  S
C534        N771   1.351       .  A
N535        C770   1.351   1_554  A
N535        C537   1.357       .  A
N535        C608   1.425       .  S
C537        H538   1.082       .  S
C542        C544   1.528       .  S
C542        C546   1.537       .  S
C542        C545   1.538       .  S
C542        C673   1.537       .  S
C543        C547   1.547       .  S
C543        C549   1.555       .  S
C543        C548   1.538       .  S
C543        C661   1.533       .  S
C544        C552   1.370       .  A
C544        C547   1.393       .  A
C545        C556   1.375       .  A
C545        C548   1.394       .  A
C546        C560   1.373       .  A
C546        C549   1.399       .  A
C547        C550   1.388       .  A
C548        C554   1.383       .  A
C549        C557   1.389       .  A
C550        H563   1.082       .  S
C550        N551   1.358       .  A
N551        C552   1.352       .  A
N551        C654   1.427       .  S
C552        H553   1.083       .  S
C554        H564   1.082       .  S
C554        N555   1.356       .  A
N555        C556   1.352       .  A
N555        C618   1.425       .  S
C556        H562   1.082       .  S
C557        H559   1.082       .  S
C557        N558   1.356       .  A
N558        C560   1.352       .  A
N558        C629   1.428       .  S
C560        H561   1.082       .  S
O565       Mg567   2.133       .  S
C566        H605   1.081       .  S
C566        O579   1.235       .  S
C566        O603   1.268       .  A
Mg567      O1776   2.171   1_554  S
Mg567       O847   2.286   1_554  S
Mg567      O1551   2.256       .  S
Mg567      O1522   2.288       .  S
O568      Mg1790   2.172   1_554  S
O568       Mg593   2.151       .  S
O568       C1533   1.235       .  S
O569        C600   1.268   1_565  A
O569       Mg593   2.291       .  S
C570        O572   1.269       .  A
C570        O584   1.276       .  A
O571        C599   1.268       .  A
O572       Mg604   2.254       .  S
Mg573       O579   2.138       .  S
Mg573       O811   2.276       .  S
C574        O612   1.272       .  A
C574        O580   1.276       .  A
O575        C582   1.272       .  A
O575       Mg809   2.276   1_554  S
H576       C1533   1.081       .  S
C577        O592   1.269       .  A
O578        C601   1.267       .  A
O578      Mg1511   2.288   1_455  S
O579       Mg829   2.167       .  S
O580       Mg846   2.308   1_554  S
C581        O594   1.274       .  A
C581        O586   1.277       .  A
C582        O609   1.276       .  A
Mg583       O590   2.138       .  S
Mg583       O820   2.303   1_554  S
O584       Mg819   2.303       .  S
O585        C589   1.269   1_455  A
O586       Mg829   2.316       .  S
O587        C606   1.271       .  A
O588        C608   1.273       .  A
O588       Mg840   2.296   1_554  S
C589       H1520   1.081       .  S
C589       O1512   1.235       .  S
O590       Mg840   2.169   1_554  S
O590        C601   1.234       .  S
O591       Mg610   2.151       .  S
O592       Mg604   2.297       .  S
Mg593       O815   2.167   1_554  S
Mg593       O822   2.316   1_554  S
Mg593       O609   2.290       .  S
O594      Mg1554   2.272       .  S
O596      Mg1747   2.171   1_455  S
O596       Mg604   2.132       .  S
O596       C1543   1.236       .  S
H597       C1543   1.081       .  S
H598        C601   1.081       .  S
C599       H1541   1.081       .  S
C599       O1540   1.236       .  S
O603      Mg1554   2.289       .  S
Mg604       O826   2.169       .  S
Mg604       O824   2.296       .  S
C606        N718   1.425       .  S
C606        O611   1.272       .  A
O607        C608   1.270       .  A
O607      Mg1511   2.256   1_455  S
Mg610      O1748   2.172   1_455  S
Mg610       O816   2.308       .  S
Mg610      O1538   2.272   1_455  S
Mg610      O1547   2.289   1_455  S
O611       Mg803   2.286       .  S
O613       Mg615   2.151   1_565  S
O613      Mg1565   2.169   1_455  S
O613       C1592   1.235       .  S
C614        H653   1.081       .  S
C614        O627   1.235       .  S
C614        O651   1.268       .  A
Mg615       O659   2.294   1_545  S
O616       Mg641   2.133       .  S
O617        C648   1.269       .  A
O617       Mg641   2.294       .  S
C618        O620   1.272       .  A
C618        O632   1.273       .  A
O619        C647   1.269   1_565  A
O619      Mg1565   2.295   1_455  S
O620       Mg652   2.272       .  S
Mg621      O1557   2.169       .  S
Mg621       O627   2.139       .  S
Mg621      O1563   2.295       .  S
Mg621      O1579   2.274       .  S
Mg621       O623   2.309       .  S
C622        O660   1.271       .  A
C622        O628   1.273       .  A
O623        C630   1.277       .  A
C625       H1594   1.081       .  S
C625       O1583   1.235       .  S
C625        O640   1.268   1_655  A
O626        C649   1.267       .  A
O627       Mg641   2.171       .  S
O628       Mg658   2.287       .  S
C629        O642   1.272       .  A
C629        O634   1.274       .  A
C630        O657   1.270       .  A
Mg631       O638   2.136       .  S
Mg631      O1583   2.169   1_455  S
Mg631       O632   2.287       .  S
Mg631      O1577   2.289   1_455  S
Mg631      O1604   2.258   1_455  S
O633        C637   1.268       .  A
O633      Mg1575   2.289       .  S
O634       Mg641   2.298       .  S
O635        C654   1.273       .  A
O635      Mg1565   2.274   1_455  S
O636        C656   1.275       .  A
O636       Mg652   2.308       .  S
O638       Mg652   2.170       .  S
O638        C649   1.234       .  S
O639      Mg1575   2.169       .  S
O639       Mg658   2.141       .  S
O639       C1569   1.235       .  S
O640       Mg652   2.292       .  S
Mg641       O657   2.262       .  S
H643       C1592   1.081       .  S
O644       Mg652   2.143       .  S
H646        C649   1.081       .  S
C648       H1587   1.081       .  S
C648       O1557   1.235       .  S
H650       C1569   1.081       .  S
C654        O659   1.273       .  A
O655        C656   1.273       .  A
O660      Mg1575   2.258       .  S
C661        C662   1.406       .  A
C661        C666   1.418       .  A
C662        C663   1.399       .  A
C662        H671   1.080       .  S
C663        C664   1.424       .  A
C663        S667   1.811       .  S
C664        C665   1.409       .  A
C665        C666   1.404       .  A
C665        H672   1.080       .  S
C666        S668   1.811       .  S
S667        H670   1.398       .  S
S668        H669   1.406       .  S
C673        C674   1.407       .  A
C673        C678   1.422       .  A
C674        C675   1.399       .  A
C674        H683   1.082       .  S
C675        C676   1.422       .  A
C675        S679   1.808       .  S
C676        C677   1.408       .  A
C677        C678   1.400       .  A
C677        H684   1.081       .  S
C678        S680   1.810       .  S
S679        H682   1.399       .  S
S680        H681   1.398       .  S
C685        C686   1.406       .  A
C685        C690   1.423       .  A
C686        C687   1.399       .  A
C686        H695   1.082       .  S
C687        C688   1.423       .  A
C687        S691   1.809       .  S
C688        C689   1.407       .  A
C689        C690   1.399       .  A
C689        H696   1.082       .  S
C690        S692   1.809       .  S
S691        H694   1.399       .  S
S692        H693   1.399       .  S
C697        C698   1.407       .  A
C697        C702   1.422       .  A
C698        C699   1.399       .  A
C698        H707   1.081       .  S
C699        C700   1.422       .  A
C699        S703   1.809       .  S
C700        C701   1.408       .  A
C701        C702   1.399       .  A
C701        H708   1.082       .  S
C702        S704   1.808       .  S
S703        H706   1.399       .  S
S704        H705   1.400       .  S
C709        C711   1.524       .  S
C709        C713   1.542       .  S
C709        C712   1.536       .  S
C709        C936   1.536       .  S
C710        C714   1.535       .  S
C710        C716   1.557       .  S
C710        C715   1.547       .  S
C710        C921   1.532       .  S
C711        C719   1.370       .  A
C712        C723   1.372       .  A
C713        C727   1.376       .  A
C714        C717   1.383       .  A
C715        C721   1.386       .  A
C716        C724   1.390       .  A
C717        H730   1.082       .  S
N718        C719   1.353       .  A
C719        H720   1.083       .  S
C721        H731   1.082       .  S
C721        N722   1.354       .  A
N722        C806   1.425       .  S
C723        H729   1.082       .  S
C724        H726   1.082       .  S
C724        N725   1.358       .  A
N725        C817   1.430       .  S
C727        H728   1.082       .  S
C732        C734   1.533       .  S
C732        C736   1.555       .  S
C732        C735   1.549       .  S
C732        C933   1.532       .  S
C733        C737   1.522       .  S
C733        C739   1.543       .  S
C733        C738   1.536       .  S
C733        C924   1.535       .  S
C734        C742   1.383       .  A
C734        C737   1.385       .  A
C735        C746   1.388       .  A
C735        C738   1.400       .  A
C736        C750   1.389       .  A
C736        C739   1.401       .  A
C737        C740   1.369       .  A
C738        C744   1.373       .  A
C739        C747   1.376       .  A
C740        H753   1.083       .  S
C740        N741   1.352       .  A
N741        C742   1.356       .  A
N741        C858   1.423       .  S
C742        H743   1.082       .  S
C744        H754   1.082       .  S
C744        N745   1.350       .  A
N745        C746   1.356       .  A
N745        C866   1.427       .  S
C746        H752   1.082       .  S
C747        H749   1.082       .  S
C747        N748   1.353       .  A
N748        C750   1.357       .  A
N748        C892   1.429       .  S
C750        H751   1.082       .  S
C755        C757   1.541       .  S
C755        C759   1.545       .  S
C755        C758   1.553       .  S
C755        C912   1.534       .  S
C756        C760   1.539   1_556  S
C756        C762   1.527   1_556  S
C756        C761   1.538   1_556  S
C756        C900   1.538       .  S
C757        C765   1.384       .  A
C758        C769   1.389       .  A
C759        C773   1.387       .  A
C760        C763   1.377   1_554  A
C761        C767   1.370   1_554  A
C762        C770   1.369   1_554  A
C763        H776   1.082       .  S
N764        C765   1.357       .  A
N764        C810   1.429       .  S
C765        H766   1.082       .  S
C767        H777   1.082       .  S
N768        C769   1.357       .  A
N768        C818   1.427       .  S
C769        H775   1.082       .  S
C770        H772   1.083       .  S
N771        C773   1.357       .  A
N771        C844   1.425       .  S
C773        H774   1.082       .  S
C778        C780   1.528       .  S
C778        C782   1.537       .  S
C778        C781   1.538       .  S
C778        C909   1.537       .  S
C779        C783   1.547       .  S
C779        C785   1.555       .  S
C779        C784   1.538       .  S
C779        C897   1.533       .  S
C780        C788   1.370       .  A
C780        C783   1.393       .  A
C781        C792   1.375       .  A
C781        C784   1.394       .  A
C782        C796   1.373       .  A
C782        C785   1.399       .  A
C783        C786   1.388       .  A
C784        C790   1.383       .  A
C785        C793   1.389       .  A
C786        H799   1.082       .  S
C786        N787   1.358       .  A
N787        C788   1.352       .  A
N787        C890   1.427       .  S
C788        H789   1.083       .  S
C790        H800   1.082       .  S
C790        N791   1.356       .  A
N791        C792   1.352       .  A
N791        C854   1.425       .  S
C792        H798   1.082       .  S
C793        H795   1.082       .  S
C793        N794   1.356       .  A
N794        C796   1.352       .  A
N794        C865   1.428       .  S
C796        H797   1.082       .  S
O801       Mg803   2.133       .  S
C802        H841   1.081       .  S
C802        O815   1.235       .  S
C802        O839   1.268       .  A
Mg803      O1540   2.171       .  S
Mg803      O1787   2.256       .  S
Mg803      O1758   2.288       .  S
O804      Mg1554   2.172       .  S
O804       Mg829   2.151       .  S
O804       C1769   1.235       .  S
O805        C836   1.268   1_565  A
O805       Mg829   2.291       .  S
C806        O808   1.269       .  A
C806        O820   1.276       .  A
O807        C835   1.268       .  A
O808       Mg840   2.254       .  S
Mg809       O815   2.138       .  S
C810        O848   1.272       .  A
C810        O816   1.276       .  A
O811        C818   1.272       .  A
H812       C1769   1.081       .  S
C813        O828   1.269       .  A
O814        C837   1.267       .  A
O814      Mg1747   2.288   1_455  S
C817        O830   1.274       .  A
C817        O822   1.277       .  A
C818        O845   1.276       .  A
Mg819       O826   2.138       .  S
O821        C825   1.269   1_455  A
O823        C842   1.271       .  A
O824        C844   1.273       .  A
C825       H1756   1.081       .  S
C825       O1748   1.235       .  S
O826        C837   1.234       .  S
O827       Mg846   2.151       .  S
O828       Mg840   2.297       .  S
Mg829       O845   2.290       .  S
O830      Mg1790   2.272       .  S
O832      Mg1511   2.171   1_456  S
O832       Mg840   2.132       .  S
O832       C1779   1.236       .  S
H833       C1779   1.081       .  S
H834        C837   1.081       .  S
C835       H1777   1.081       .  S
C835       O1776   1.236       .  S
O839      Mg1790   2.289       .  S
C842        O847   1.272       .  A
O843        C844   1.270       .  A
O843      Mg1747   2.256   1_455  S
Mg846      O1512   2.172   1_456  S
Mg846      O1774   2.272   1_455  S
Mg846      O1783   2.289   1_455  S
O849       Mg851   2.151   1_565  S
O849      Mg1801   2.169   1_455  S
O849       C1828   1.235       .  S
C850        H889   1.081       .  S
C850        O863   1.235       .  S
C850        O887   1.268       .  A
Mg851       O895   2.294   1_545  S
O852       Mg877   2.133       .  S
O853        C884   1.269       .  A
O853       Mg877   2.294       .  S
C854        O856   1.272       .  A
C854        O868   1.273       .  A
O855        C883   1.269   1_565  A
O855      Mg1801   2.295   1_455  S
O856       Mg888   2.272       .  S
Mg857      O1793   2.169       .  S
Mg857       O863   2.139       .  S
Mg857      O1799   2.295       .  S
Mg857      O1815   2.274       .  S
Mg857       O859   2.309       .  S
C858        O896   1.271       .  A
C858        O864   1.273       .  A
O859        C866   1.277       .  A
C861       H1830   1.081       .  S
C861       O1819   1.235       .  S
C861        O876   1.268   1_655  A
O862        C885   1.267       .  A
O863       Mg877   2.171       .  S
O864       Mg894   2.287       .  S
C865        O878   1.272       .  A
C865        O870   1.274       .  A
C866        O893   1.270       .  A
Mg867       O874   2.136       .  S
Mg867      O1819   2.169   1_455  S
Mg867       O868   2.287       .  S
Mg867      O1813   2.289   1_455  S
Mg867      O1840   2.258   1_455  S
O869        C873   1.268       .  A
O869      Mg1811   2.289       .  S
O870       Mg877   2.298       .  S
O871        C890   1.273       .  A
O871      Mg1801   2.274   1_455  S
O872        C892   1.275       .  A
O872       Mg888   2.308       .  S
O874       Mg888   2.170       .  S
O874        C885   1.234       .  S
O875      Mg1811   2.169       .  S
O875       Mg894   2.141       .  S
O875       C1805   1.235       .  S
O876       Mg888   2.292       .  S
Mg877       O893   2.262       .  S
H879       C1828   1.081       .  S
O880       Mg888   2.143       .  S
H882        C885   1.081       .  S
C884       H1823   1.081       .  S
C884       O1793   1.235       .  S
H886       C1805   1.081       .  S
C890        O895   1.273       .  A
O891        C892   1.273       .  A
O896      Mg1811   2.258       .  S
C897        C898   1.406       .  A
C897        C902   1.418       .  A
C898        C899   1.399       .  A
C898        H907   1.080       .  S
C899        C900   1.424       .  A
C899        S903   1.811       .  S
C900        C901   1.409       .  A
C901        C902   1.404       .  A
C901        H908   1.080       .  S
C902        S904   1.811       .  S
S903        H906   1.398       .  S
S904        H905   1.406       .  S
C909        C910   1.407       .  A
C909        C914   1.422       .  A
C910        C911   1.399       .  A
C910        H919   1.082       .  S
C911        C912   1.422       .  A
C911        S915   1.808       .  S
C912        C913   1.408       .  A
C913        C914   1.400       .  A
C913        H920   1.081       .  S
C914        S916   1.810       .  S
S915        H918   1.399       .  S
S916        H917   1.398       .  S
C921        C922   1.406       .  A
C921        C926   1.423       .  A
C922        C923   1.399       .  A
C922        H931   1.082       .  S
C923        C924   1.423       .  A
C923        S927   1.809       .  S
C924        C925   1.407       .  A
C925        C926   1.399       .  A
C925        H932   1.082       .  S
C926        S928   1.809       .  S
S927        H930   1.399       .  S
S928        H929   1.399       .  S
C933        C934   1.407       .  A
C933        C938   1.422       .  A
C934        C935   1.399       .  A
C934        H943   1.081       .  S
C935        C936   1.422       .  A
C935        S939   1.809       .  S
C936        C937   1.408       .  A
C937        C938   1.399       .  A
C937        H944   1.082       .  S
C938        S940   1.808       .  S
S939        H942   1.399       .  S
S940        H941   1.400       .  S
C945        C947   1.524   1_554  S
C945        C949   1.542   1_554  S
C945        C948   1.536   1_554  S
C945       C1172   1.536       .  S
C946        C950   1.535       .  S
C946        C952   1.557       .  S
C946        C951   1.547       .  S
C946       C1157   1.532       .  S
C947        C955   1.370   1_556  A
C947       C1186   1.387       .  A
C948        C959   1.372   1_556  A
C948       C1187   1.399       .  A
C949        C963   1.376   1_556  A
C949       C1188   1.400       .  A
C950       C1183   1.387       .  A
C950        C953   1.383       .  A
C951       C1184   1.399       .  A
C951        C957   1.386       .  A
C952       C1185   1.400       .  A
C952        C960   1.390       .  A
C953        H966   1.082       .  S
C953       N1190   1.357       .  A
N954       C1189   1.357       .  A
N954        C955   1.353   1_556  A
N954       C1314   1.425       .  S
C955        H956   1.083       .  S
C957        H967   1.082       .  S
C957        N958   1.354       .  A
N958       C1195   1.351       .  A
N958       C1042   1.425       .  S
C959        H965   1.082       .  S
C959       N1194   1.351   1_554  A
C960        H962   1.082       .  S
C960        N961   1.358       .  A
N961       C1199   1.351       .  A
N961       C1053   1.430       .  S
C963        H964   1.082       .  S
C963       N1197   1.351   1_554  A
C968        C970   1.533       .  S
C968        C972   1.555       .  S
C968        C971   1.549       .  S
C968       C1169   1.532       .  S
C969        C973   1.522       .  S
C969        C975   1.543       .  S
C969        C974   1.536       .  S
C969       C1160   1.535       .  S
C970        C978   1.383       .  A
C970        C973   1.385       .  A
C971        C982   1.388       .  A
C971        C974   1.400       .  A
C972        C986   1.389       .  A
C972        C975   1.401       .  A
C973        C976   1.369       .  A
C974        C980   1.373       .  A
C975        C983   1.376       .  A
C976        H989   1.083       .  S
C976        N977   1.352       .  A
N977        C978   1.356       .  A
N977       C1094   1.423       .  S
C978        H979   1.082       .  S
C980        H990   1.082       .  S
C980        N981   1.350       .  A
N981        C982   1.356       .  A
N981       C1102   1.427       .  S
C982        H988   1.082       .  S
C983        H985   1.082       .  S
C983        N984   1.353       .  A
N984        C986   1.357       .  A
N984       C1128   1.429       .  S
C986        H987   1.082       .  S
C991        C993   1.541       .  S
C991        C995   1.545       .  S
C991        C994   1.553       .  S
C991       C1148   1.534       .  S
C992        C996   1.539       .  S
C992        C998   1.527       .  S
C992        C997   1.538       .  S
C992       C1136   1.538       .  S
C993       C1001   1.384       .  A
C993       C1232   1.394       .  A
C994       C1005   1.389       .  A
C994       C1233   1.398       .  A
C995       C1009   1.387       .  A
C995       C1234   1.394       .  A
C996       C1229   1.394       .  A
C996        C999   1.377       .  A
C997       C1230   1.398       .  A
C997       C1003   1.370       .  A
C998       C1231   1.394       .  A
C998       C1006   1.369       .  A
C999       H1012   1.082       .  S
C999       N1236   1.354       .  A
N1000      C1235   1.354   1_554  A
N1000      C1001   1.357       .  A
N1000      C1046   1.429       .  S
C1001      H1002   1.082       .  S
C1003      H1013   1.082       .  S
C1003      N1240   1.351       .  A
N1004      C1239   1.351   1_554  A
N1004      C1005   1.357       .  A
N1004      C1054   1.427       .  S
C1005      H1011   1.082       .  S
C1006      H1008   1.083       .  S
C1006      N1243   1.351       .  A
N1007      C1242   1.351   1_554  A
N1007      C1009   1.357       .  A
N1007      C1080   1.425       .  S
C1009      H1010   1.082       .  S
C1014      C1016   1.528       .  S
C1014      C1018   1.537       .  S
C1014      C1017   1.538       .  S
C1014      C1145   1.537       .  S
C1015      C1019   1.547       .  S
C1015      C1021   1.555       .  S
C1015      C1020   1.538       .  S
C1015      C1133   1.533       .  S
C1016      C1024   1.370       .  A
C1016      C1019   1.393       .  A
C1017      C1028   1.375       .  A
C1017      C1020   1.394       .  A
C1018      C1032   1.373       .  A
C1018      C1021   1.399       .  A
C1019      C1022   1.388       .  A
C1020      C1026   1.383       .  A
C1021      C1029   1.389       .  A
C1022      H1035   1.082       .  S
C1022      N1023   1.358       .  A
N1023      C1024   1.352       .  A
N1023      C1126   1.427       .  S
C1024      H1025   1.083       .  S
C1026      H1036   1.082       .  S
C1026      N1027   1.356       .  A
N1027      C1028   1.352       .  A
N1027      C1090   1.425       .  S
C1028      H1034   1.082       .  S
C1029      H1031   1.082       .  S
C1029      N1030   1.356       .  A
N1030      C1032   1.352       .  A
N1030      C1101   1.428       .  S
C1032      H1033   1.082       .  S
O1037     Mg1039   2.133       .  S
O1037     Mg1753   2.164   1_544  S
O1037      C1544   1.235       .  S
C1038      H1077   1.081       .  S
C1038      O1051   1.235       .  S
C1038      O1075   1.268       .  A
Mg1039     O1319   2.286   1_554  S
O1040     Mg1065   2.151       .  S
O1041      C1072   1.268       .  A
O1041     Mg1065   2.291       .  S
C1042      O1044   1.269       .  A
C1042      O1056   1.276       .  A
O1043      C1071   1.268   1_655  A
O1043     Mg1517   2.286   1_545  S
O1044     Mg1076   2.254       .  S
Mg1045     O1745   2.164       .  S
Mg1045     O1051   2.138       .  S
Mg1045     O1515   2.286       .  S
Mg1045     O1531   2.265       .  S
Mg1045     O1283   2.276       .  S
C1046      O1084   1.272       .  A
C1046      O1052   1.276       .  A
O1047      C1054   1.272       .  A
O1047     Mg1281   2.276   1_554  S
C1049      H1546   1.081       .  S
C1049      O1535   1.235       .  S
C1049      O1064   1.269   1_565  A
O1050      C1073   1.267       .  A
O1051     Mg1301   2.167       .  S
O1052     Mg1318   2.308   1_554  S
C1053      O1066   1.274       .  A
C1053      O1058   1.277       .  A
C1054      O1081   1.276       .  A
Mg1055     O1062   2.138       .  S
Mg1055     O1771   2.168   1_544  S
Mg1055     O1292   2.303   1_554  S
Mg1055     O1529   2.295   1_545  S
Mg1055     O1556   2.272   1_545  S
O1056     Mg1291   2.303       .  S
O1057      C1061   1.269       .  A
O1057     Mg1527   2.295       .  S
O1058     Mg1301   2.316       .  S
O1059      C1078   1.271       .  A
O1059     Mg1517   2.265   1_545  S
O1060      C1080   1.273       .  A
O1060     Mg1312   2.296   1_554  S
O1062     Mg1312   2.169   1_554  S
O1062      C1073   1.234       .  S
O1063     Mg1763   2.168       .  S
O1063     Mg1082   2.151       .  S
O1063      C1521   1.235       .  S
O1064     Mg1076   2.297       .  S
Mg1065     O1287   2.167   1_554  S
Mg1065     O1294   2.316   1_554  S
Mg1065     O1081   2.290       .  S
H1067      C1544   1.081       .  S
O1068     Mg1076   2.132       .  S
H1070      C1073   1.081       .  S
C1072      H1539   1.081       .  S
C1072      O1509   1.235       .  S
H1074      C1521   1.081       .  S
Mg1076     O1298   2.169       .  S
Mg1076     O1296   2.296       .  S
C1078      N1190   1.425       .  S
C1078      O1083   1.272       .  A
O1079      C1080   1.270       .  A
Mg1082     O1288   2.308       .  S
O1083     Mg1275   2.286       .  S
O1084     Mg1527   2.272       .  S
O1085     Mg1087   2.151       .  S
C1086      H1125   1.081       .  S
C1086      O1099   1.235       .  S
C1086      O1123   1.268       .  A
Mg1087     O1588   2.167       .  S
Mg1087     O1131   2.294       .  S
Mg1087     O1599   2.272       .  S
Mg1087     O1570   2.288       .  S
O1088     Mg1602   2.167       .  S
O1088     Mg1113   2.133       .  S
O1088      C1581   1.235       .  S
O1089      C1120   1.269   1_655  A
O1089     Mg1113   2.294       .  S
C1090      O1092   1.272       .  A
C1090      O1104   1.273       .  A
O1091      C1119   1.269       .  A
O1092     Mg1124   2.272       .  S
Mg1093     O1099   2.139       .  S
Mg1093     O1095   2.309       .  S
C1094      O1132   1.271       .  A
C1094      O1100   1.273       .  A
O1095      C1102   1.277       .  A
H1096      C1581   1.081       .  S
C1097      O1112   1.268       .  A
O1098      C1121   1.267       .  A
O1098     Mg1559   2.288       .  S
O1099     Mg1113   2.171       .  S
O1100     Mg1130   2.287       .  S
C1101      O1114   1.272       .  A
C1101      O1106   1.274       .  A
C1102      O1129   1.270       .  A
Mg1103     O1110   2.136       .  S
Mg1103     O1104   2.287       .  S
O1105      C1109   1.268   1_545  A
O1106     Mg1113   2.298       .  S
O1107      C1126   1.273       .  A
O1108      C1128   1.275       .  A
O1108     Mg1124   2.308       .  S
C1109      H1568   1.081       .  S
C1109      O1560   1.235       .  S
O1110     Mg1124   2.170       .  S
O1110      C1121   1.234       .  S
O1111     Mg1130   2.141       .  S
O1112     Mg1124   2.292       .  S
Mg1113     O1129   2.262       .  S
O1114     Mg1602   2.271       .  S
O1116     Mg1559   2.167       .  S
O1116     Mg1124   2.143       .  S
O1116      C1591   1.236       .  S
H1117      C1591   1.081       .  S
H1118      C1121   1.081       .  S
C1119      H1589   1.081       .  S
C1119      O1588   1.236       .  S
O1123     Mg1602   2.288       .  S
C1126      O1131   1.273       .  A
O1127      C1128   1.273       .  A
O1127     Mg1559   2.272       .  S
Mg1130     O1560   2.167   1_545  S
Mg1130     O1586   2.271   1_545  S
Mg1130     O1595   2.288   1_545  S
C1133      C1134   1.406       .  A
C1133      C1138   1.418       .  A
C1134      C1135   1.399       .  A
C1134      H1143   1.080       .  S
C1135      C1136   1.424       .  A
C1135      S1139   1.811       .  S
C1136      C1137   1.409       .  A
C1137      C1138   1.404       .  A
C1137      H1144   1.080       .  S
C1138      S1140   1.811       .  S
S1139      H1142   1.398       .  S
S1140      H1141   1.406       .  S
C1145      C1146   1.407       .  A
C1145      C1150   1.422       .  A
C1146      C1147   1.399       .  A
C1146      H1155   1.082       .  S
C1147      C1148   1.422       .  A
C1147      S1151   1.808       .  S
C1148      C1149   1.408       .  A
C1149      C1150   1.400       .  A
C1149      H1156   1.081       .  S
C1150      S1152   1.810       .  S
S1151      H1154   1.399       .  S
S1152      H1153   1.398       .  S
C1157      C1158   1.406       .  A
C1157      C1162   1.423       .  A
C1158      C1159   1.399       .  A
C1158      H1167   1.082       .  S
C1159      C1160   1.423       .  A
C1159      S1163   1.809       .  S
C1160      C1161   1.407       .  A
C1161      C1162   1.399       .  A
C1161      H1168   1.082       .  S
C1162      S1164   1.809       .  S
S1163      H1166   1.399       .  S
S1164      H1165   1.399       .  S
C1169      C1170   1.407       .  A
C1169      C1174   1.422       .  A
C1170      C1171   1.399       .  A
C1170      H1179   1.081       .  S
C1171      C1172   1.422       .  A
C1171      S1175   1.809       .  S
C1172      C1173   1.408       .  A
C1173      C1174   1.399       .  A
C1173      H1180   1.082       .  S
C1174      S1176   1.808       .  S
S1175      H1178   1.399       .  S
S1176      H1177   1.400       .  S
C1181      C1183   1.524       .  S
C1181      C1185   1.542       .  S
C1181      C1184   1.536       .  S
C1181      C1408   1.536       .  S
C1182      C1186   1.535       .  S
C1182      C1188   1.557       .  S
C1182      C1187   1.547       .  S
C1182      C1393   1.532       .  S
C1183      C1191   1.370       .  A
C1184      C1195   1.372       .  A
C1185      C1199   1.376       .  A
C1186      C1189   1.383       .  A
C1187      C1193   1.386       .  A
C1188      C1196   1.390       .  A
C1189      H1202   1.082       .  S
N1190      C1191   1.353       .  A
C1191      H1192   1.083       .  S
C1193      H1203   1.082       .  S
C1193      N1194   1.354       .  A
N1194      C1278   1.425       .  S
C1195      H1201   1.082       .  S
C1196      H1198   1.082       .  S
C1196      N1197   1.358       .  A
N1197      C1289   1.430       .  S
C1199      H1200   1.082       .  S
C1204      C1206   1.533       .  S
C1204      C1208   1.555       .  S
C1204      C1207   1.549       .  S
C1204      C1405   1.532       .  S
C1205      C1209   1.522       .  S
C1205      C1211   1.543       .  S
C1205      C1210   1.536       .  S
C1205      C1396   1.535       .  S
C1206      C1214   1.383       .  A
C1206      C1209   1.385       .  A
C1207      C1218   1.388       .  A
C1207      C1210   1.400       .  A
C1208      C1222   1.389       .  A
C1208      C1211   1.401       .  A
C1209      C1212   1.369       .  A
C1210      C1216   1.373       .  A
C1211      C1219   1.376       .  A
C1212      H1225   1.083       .  S
C1212      N1213   1.352       .  A
N1213      C1214   1.356       .  A
N1213      C1330   1.423       .  S
C1214      H1215   1.082       .  S
C1216      H1226   1.082       .  S
C1216      N1217   1.350       .  A
N1217      C1218   1.356       .  A
N1217      C1338   1.427       .  S
C1218      H1224   1.082       .  S
C1219      H1221   1.082       .  S
C1219      N1220   1.353       .  A
N1220      C1222   1.357       .  A
N1220      C1364   1.429       .  S
C1222      H1223   1.082       .  S
C1227      C1229   1.541       .  S
C1227      C1231   1.545       .  S
C1227      C1230   1.553       .  S
C1227      C1384   1.534       .  S
C1228      C1232   1.539   1_556  S
C1228      C1234   1.527   1_556  S
C1228      C1233   1.538   1_556  S
C1228      C1372   1.538       .  S
C1229      C1237   1.384       .  A
C1230      C1241   1.389       .  A
C1231      C1245   1.387       .  A
C1232      C1235   1.377   1_554  A
C1233      C1239   1.370   1_554  A
C1234      C1242   1.369   1_554  A
C1235      H1248   1.082       .  S
N1236      C1237   1.357       .  A
N1236      C1282   1.429       .  S
C1237      H1238   1.082       .  S
C1239      H1249   1.082       .  S
N1240      C1241   1.357       .  A
N1240      C1290   1.427       .  S
C1241      H1247   1.082       .  S
C1242      H1244   1.083       .  S
N1243      C1245   1.357       .  A
N1243      C1316   1.425       .  S
C1245      H1246   1.082       .  S
C1250      C1252   1.528       .  S
C1250      C1254   1.537       .  S
C1250      C1253   1.538       .  S
C1250      C1381   1.537       .  S
C1251      C1255   1.547       .  S
C1251      C1257   1.555       .  S
C1251      C1256   1.538       .  S
C1251      C1369   1.533       .  S
C1252      C1260   1.370       .  A
C1252      C1255   1.393       .  A
C1253      C1264   1.375       .  A
C1253      C1256   1.394       .  A
C1254      C1268   1.373       .  A
C1254      C1257   1.399       .  A
C1255      C1258   1.388       .  A
C1256      C1262   1.383       .  A
C1257      C1265   1.389       .  A
C1258      H1271   1.082       .  S
C1258      N1259   1.358       .  A
N1259      C1260   1.352       .  A
N1259      C1362   1.427       .  S
C1260      H1261   1.083       .  S
C1262      H1272   1.082       .  S
C1262      N1263   1.356       .  A
N1263      C1264   1.352       .  A
N1263      C1326   1.425       .  S
C1264      H1270   1.082       .  S
C1265      H1267   1.082       .  S
C1265      N1266   1.356       .  A
N1266      C1268   1.352       .  A
N1266      C1337   1.428       .  S
C1268      H1269   1.082       .  S
O1273     Mg1275   2.133       .  S
O1273     Mg1517   2.164   1_545  S
O1273      C1780   1.235       .  S
C1274      H1313   1.081       .  S
C1274      O1287   1.235       .  S
C1274      O1311   1.268       .  A
O1276     Mg1301   2.151       .  S
O1277      C1308   1.268       .  A
O1277     Mg1301   2.291       .  S
C1278      O1280   1.269       .  A
C1278      O1292   1.276       .  A
O1279      C1307   1.268   1_655  A
O1279     Mg1753   2.286   1_545  S
O1280     Mg1312   2.254       .  S
Mg1281     O1509   2.164   1_556  S
Mg1281     O1287   2.138       .  S
Mg1281     O1751   2.286       .  S
Mg1281     O1767   2.265       .  S
C1282      O1320   1.272       .  A
C1282      O1288   1.276       .  A
O1283      C1290   1.272       .  A
C1285      H1782   1.081       .  S
C1285      O1771   1.235       .  S
C1285      O1300   1.269   1_565  A
O1286      C1309   1.267       .  A
C1289      O1302   1.274       .  A
C1289      O1294   1.277       .  A
C1290      O1317   1.276       .  A
Mg1291     O1298   2.138       .  S
Mg1291     O1535   2.168   1_545  S
Mg1291     O1765   2.295   1_545  S
Mg1291     O1792   2.272   1_545  S
O1293      C1297   1.269       .  A
O1293     Mg1763   2.295       .  S
O1295      C1314   1.271       .  A
O1295     Mg1753   2.265   1_545  S
O1296      C1316   1.273       .  A
O1298      C1309   1.234       .  S
O1299     Mg1527   2.168   1_556  S
O1299     Mg1318   2.151       .  S
O1299      C1757   1.235       .  S
O1300     Mg1312   2.297       .  S
Mg1301     O1317   2.290       .  S
H1303      C1780   1.081       .  S
O1304     Mg1312   2.132       .  S
H1306      C1309   1.081       .  S
C1308      H1775   1.081       .  S
C1308      O1745   1.235       .  S
H1310      C1757   1.081       .  S
C1314      O1319   1.272       .  A
O1315      C1316   1.270       .  A
O1320     Mg1763   2.272       .  S
O1321     Mg1323   2.151       .  S
C1322      H1361   1.081       .  S
C1322      O1335   1.235       .  S
C1322      O1359   1.268       .  A
Mg1323     O1824   2.167       .  S
Mg1323     O1367   2.294       .  S
Mg1323     O1835   2.272       .  S
Mg1323     O1806   2.288       .  S
O1324     Mg1838   2.167       .  S
O1324     Mg1349   2.133       .  S
O1324      C1817   1.235       .  S
O1325      C1356   1.269   1_655  A
O1325     Mg1349   2.294       .  S
C1326      O1328   1.272       .  A
C1326      O1340   1.273       .  A
O1327      C1355   1.269       .  A
O1328     Mg1360   2.272       .  S
Mg1329     O1335   2.139       .  S
Mg1329     O1331   2.309       .  S
C1330      O1368   1.271       .  A
C1330      O1336   1.273       .  A
O1331      C1338   1.277       .  A
H1332      C1817   1.081       .  S
C1333      O1348   1.268       .  A
O1334      C1357   1.267       .  A
O1334     Mg1795   2.288       .  S
O1335     Mg1349   2.171       .  S
O1336     Mg1366   2.287       .  S
C1337      O1350   1.272       .  A
C1337      O1342   1.274       .  A
C1338      O1365   1.270       .  A
Mg1339     O1346   2.136       .  S
Mg1339     O1340   2.287       .  S
O1341      C1345   1.268   1_545  A
O1342     Mg1349   2.298       .  S
O1343      C1362   1.273       .  A
O1344      C1364   1.275       .  A
O1344     Mg1360   2.308       .  S
C1345      H1804   1.081       .  S
C1345      O1796   1.235       .  S
O1346     Mg1360   2.170       .  S
O1346      C1357   1.234       .  S
O1347     Mg1366   2.141       .  S
O1348     Mg1360   2.292       .  S
Mg1349     O1365   2.262       .  S
O1350     Mg1838   2.271       .  S
O1352     Mg1795   2.167       .  S
O1352     Mg1360   2.143       .  S
O1352      C1827   1.236       .  S
H1353      C1827   1.081       .  S
H1354      C1357   1.081       .  S
C1355      H1825   1.081       .  S
C1355      O1824   1.236       .  S
O1359     Mg1838   2.288       .  S
C1362      O1367   1.273       .  A
O1363      C1364   1.273       .  A
O1363     Mg1795   2.272       .  S
Mg1366     O1796   2.167   1_545  S
Mg1366     O1822   2.271   1_545  S
Mg1366     O1831   2.288   1_545  S
C1369      C1370   1.406       .  A
C1369      C1374   1.418       .  A
C1370      C1371   1.399       .  A
C1370      H1379   1.080       .  S
C1371      C1372   1.424       .  A
C1371      S1375   1.811       .  S
C1372      C1373   1.409       .  A
C1373      C1374   1.404       .  A
C1373      H1380   1.080       .  S
C1374      S1376   1.811       .  S
S1375      H1378   1.398       .  S
S1376      H1377   1.406       .  S
C1381      C1382   1.407       .  A
C1381      C1386   1.422       .  A
C1382      C1383   1.399       .  A
C1382      H1391   1.082       .  S
C1383      C1384   1.422       .  A
C1383      S1387   1.808       .  S
C1384      C1385   1.408       .  A
C1385      C1386   1.400       .  A
C1385      H1392   1.081       .  S
C1386      S1388   1.810       .  S
S1387      H1390   1.399       .  S
S1388      H1389   1.398       .  S
C1393      C1394   1.406       .  A
C1393      C1398   1.423       .  A
C1394      C1395   1.399       .  A
C1394      H1403   1.082       .  S
C1395      C1396   1.423       .  A
C1395      S1399   1.809       .  S
C1396      C1397   1.407       .  A
C1397      C1398   1.399       .  A
C1397      H1404   1.082       .  S
C1398      S1400   1.809       .  S
S1399      H1402   1.399       .  S
S1400      H1401   1.399       .  S
C1405      C1406   1.407       .  A
C1405      C1410   1.422       .  A
C1406      C1407   1.399       .  A
C1406      H1415   1.081       .  S
C1407      C1408   1.422       .  A
C1407      S1411   1.809       .  S
C1408      C1409   1.408       .  A
C1409      C1410   1.399       .  A
C1409      H1416   1.082       .  S
C1410      S1412   1.808       .  S
S1411      H1414   1.399       .  S
S1412      H1413   1.400       .  S
C1417      C1419   1.524   1_554  S
C1417      C1421   1.542   1_554  S
C1417      C1420   1.536   1_554  S
C1417      C1644   1.536       .  S
C1418      C1422   1.535       .  S
C1418      C1424   1.557       .  S
C1418      C1423   1.547       .  S
C1418      C1629   1.532       .  S
C1419      C1427   1.370   1_556  A
C1419      C1658   1.387       .  A
C1420      C1431   1.372   1_556  A
C1420      C1659   1.399       .  A
C1421      C1435   1.376   1_556  A
C1421      C1660   1.400       .  A
C1422      C1655   1.387       .  A
C1422      C1425   1.383       .  A
C1423      C1656   1.399       .  A
C1423      C1429   1.386       .  A
C1424      C1657   1.400       .  A
C1424      C1432   1.390       .  A
C1425      H1438   1.082       .  S
C1425      N1662   1.357       .  A
N1426      C1661   1.357       .  A
N1426      C1427   1.353   1_556  A
N1426      C1786   1.425       .  S
C1427      H1428   1.083       .  S
C1429      H1439   1.082       .  S
C1429      N1430   1.354       .  A
N1430      C1667   1.351       .  A
N1430      C1514   1.425       .  S
C1431      H1437   1.082       .  S
C1431      N1666   1.351   1_554  A
C1432      H1434   1.082       .  S
C1432      N1433   1.358       .  A
N1433      C1671   1.351       .  A
N1433      C1525   1.430       .  S
C1435      H1436   1.082       .  S
C1435      N1669   1.351   1_554  A
C1440      C1442   1.533       .  S
C1440      C1444   1.555       .  S
C1440      C1443   1.549       .  S
C1440      C1641   1.532       .  S
C1441      C1445   1.522       .  S
C1441      C1447   1.543       .  S
C1441      C1446   1.536       .  S
C1441      C1632   1.535       .  S
C1442      C1450   1.383       .  A
C1442      C1445   1.385       .  A
C1443      C1454   1.388       .  A
C1443      C1446   1.400       .  A
C1444      C1458   1.389       .  A
C1444      C1447   1.401       .  A
C1445      C1448   1.369       .  A
C1446      C1452   1.373       .  A
C1447      C1455   1.376       .  A
C1448      H1461   1.083       .  S
C1448      N1449   1.352       .  A
N1449      C1450   1.356       .  A
N1449      C1566   1.423       .  S
C1450      H1451   1.082       .  S
C1452      H1462   1.082       .  S
C1452      N1453   1.350       .  A
N1453      C1454   1.356       .  A
N1453      C1574   1.427       .  S
C1454      H1460   1.082       .  S
C1455      H1457   1.082       .  S
C1455      N1456   1.353       .  A
N1456      C1458   1.357       .  A
N1456      C1600   1.429       .  S
C1458      H1459   1.082       .  S
C1463      C1465   1.541       .  S
C1463      C1467   1.545       .  S
C1463      C1466   1.553       .  S
C1463      C1620   1.534       .  S
C1464      C1468   1.539       .  S
C1464      C1470   1.527       .  S
C1464      C1469   1.538       .  S
C1464      C1608   1.538       .  S
C1465      C1473   1.384       .  A
C1465      C1704   1.394       .  A
C1466      C1477   1.389       .  A
C1466      C1705   1.398       .  A
C1467      C1481   1.387       .  A
C1467      C1706   1.394       .  A
C1468      C1701   1.394       .  A
C1468      C1471   1.377       .  A
C1469      C1702   1.398       .  A
C1469      C1475   1.370       .  A
C1470      C1703   1.394       .  A
C1470      C1478   1.369       .  A
C1471      H1484   1.082       .  S
C1471      N1708   1.354       .  A
N1472      C1707   1.354   1_554  A
N1472      C1473   1.357       .  A
N1472      C1518   1.429       .  S
C1473      H1474   1.082       .  S
C1475      H1485   1.082       .  S
C1475      N1712   1.351       .  A
N1476      C1711   1.351   1_554  A
N1476      C1477   1.357       .  A
N1476      C1526   1.427       .  S
C1477      H1483   1.082       .  S
C1478      H1480   1.083       .  S
C1478      N1715   1.351       .  A
N1479      C1714   1.351   1_554  A
N1479      C1481   1.357       .  A
N1479      C1552   1.425       .  S
C1481      H1482   1.082       .  S
C1486      C1488   1.528       .  S
C1486      C1490   1.537       .  S
C1486      C1489   1.538       .  S
C1486      C1617   1.537       .  S
C1487      C1491   1.547       .  S
C1487      C1493   1.555       .  S
C1487      C1492   1.538       .  S
C1487      C1605   1.533       .  S
C1488      C1496   1.370       .  A
C1488      C1491   1.393       .  A
C1489      C1500   1.375       .  A
C1489      C1492   1.394       .  A
C1490      C1504   1.373       .  A
C1490      C1493   1.399       .  A
C1491      C1494   1.388       .  A
C1492      C1498   1.383       .  A
C1493      C1501   1.389       .  A
C1494      H1507   1.082       .  S
C1494      N1495   1.358       .  A
N1495      C1496   1.352       .  A
N1495      C1598   1.427       .  S
C1496      H1497   1.083       .  S
C1498      H1508   1.082       .  S
C1498      N1499   1.356       .  A
N1499      C1500   1.352       .  A
N1499      C1562   1.425       .  S
C1500      H1506   1.082       .  S
C1501      H1503   1.082       .  S
C1501      N1502   1.356       .  A
N1502      C1504   1.352       .  A
N1502      C1573   1.428       .  S
C1504      H1505   1.082       .  S
O1509     Mg1511   2.133       .  S
C1510      H1549   1.081       .  S
C1510      O1523   1.235       .  S
C1510      O1547   1.268       .  A
Mg1511     O1791   2.286   1_554  S
O1512     Mg1537   2.151       .  S
O1513      C1544   1.268   1_565  A
O1513     Mg1537   2.291       .  S
C1514      O1516   1.269       .  A
C1514      O1528   1.276       .  A
O1515      C1543   1.268   1_655  A
O1516     Mg1548   2.254       .  S
Mg1517     O1523   2.138       .  S
Mg1517     O1755   2.276       .  S
C1518      O1556   1.272       .  A
C1518      O1524   1.276       .  A
O1519      C1526   1.272       .  A
O1519     Mg1753   2.276   1_554  S
C1521      O1536   1.269       .  A
O1522      C1545   1.267       .  A
O1523     Mg1773   2.167       .  S
O1524     Mg1790   2.308   1_554  S
C1525      O1538   1.274       .  A
C1525      O1530   1.277       .  A
C1526      O1553   1.276       .  A
Mg1527     O1534   2.138       .  S
Mg1527     O1764   2.303   1_554  S
O1528     Mg1763   2.303       .  S
O1529      C1533   1.269       .  A
O1530     Mg1773   2.316       .  S
O1531      C1550   1.271       .  A
O1532      C1552   1.273       .  A
O1532     Mg1784   2.296   1_554  S
O1534     Mg1784   2.169   1_554  S
O1534      C1545   1.234       .  S
O1535     Mg1554   2.151       .  S
O1536     Mg1548   2.297       .  S
Mg1537     O1759   2.167   1_554  S
Mg1537     O1766   2.316   1_554  S
Mg1537     O1553   2.290       .  S
O1540     Mg1548   2.132       .  S
H1542      C1545   1.081       .  S
Mg1548     O1770   2.169       .  S
Mg1548     O1768   2.296       .  S
C1550      N1662   1.425       .  S
C1550      O1555   1.272       .  A
O1551      C1552   1.270       .  A
Mg1554     O1760   2.308       .  S
O1555     Mg1747   2.286       .  S
O1557     Mg1559   2.151   1_565  S
C1558      H1597   1.081       .  S
C1558      O1571   1.235       .  S
C1558      O1595   1.268       .  A
Mg1559     O1603   2.294   1_545  S
O1560     Mg1585   2.133       .  S
O1561      C1592   1.269   1_655  A
O1561     Mg1585   2.294       .  S
C1562      O1564   1.272       .  A
C1562      O1576   1.273       .  A
O1563      C1591   1.269   1_565  A
O1564     Mg1596   2.272       .  S
Mg1565     O1571   2.139       .  S
Mg1565     O1567   2.309       .  S
C1566      O1604   1.271       .  A
C1566      O1572   1.273       .  A
O1567      C1574   1.277       .  A
C1569      O1584   1.268       .  A
O1570      C1593   1.267       .  A
O1571     Mg1585   2.171       .  S
O1572     Mg1602   2.287       .  S
C1573      O1586   1.272       .  A
C1573      O1578   1.274       .  A
C1574      O1601   1.270       .  A
Mg1575     O1582   2.136       .  S
Mg1575     O1576   2.287       .  S
O1577      C1581   1.268       .  A
O1578     Mg1585   2.298       .  S
O1579      C1598   1.273       .  A
O1580      C1600   1.275       .  A
O1580     Mg1596   2.308       .  S
O1582     Mg1596   2.170       .  S
O1582      C1593   1.234       .  S
O1583     Mg1602   2.141       .  S
O1584     Mg1596   2.292       .  S
Mg1585     O1601   2.262       .  S
O1588     Mg1596   2.143       .  S
H1590      C1593   1.081       .  S
C1598      O1603   1.273       .  A
O1599      C1600   1.273       .  A
C1605      C1606   1.406       .  A
C1605      C1610   1.418       .  A
C1606      C1607   1.399       .  A
C1606      H1615   1.080       .  S
C1607      C1608   1.424       .  A
C1607      S1611   1.811       .  S
C1608      C1609   1.409       .  A
C1609      C1610   1.404       .  A
C1609      H1616   1.080       .  S
C1610      S1612   1.811       .  S
S1611      H1614   1.398       .  S
S1612      H1613   1.406       .  S
C1617      C1618   1.407       .  A
C1617      C1622   1.422       .  A
C1618      C1619   1.399       .  A
C1618      H1627   1.082       .  S
C1619      C1620   1.422       .  A
C1619      S1623   1.808       .  S
C1620      C1621   1.408       .  A
C1621      C1622   1.400       .  A
C1621      H1628   1.081       .  S
C1622      S1624   1.810       .  S
S1623      H1626   1.399       .  S
S1624      H1625   1.398       .  S
C1629      C1630   1.406       .  A
C1629      C1634   1.423       .  A
C1630      C1631   1.399       .  A
C1630      H1639   1.082       .  S
C1631      C1632   1.423       .  A
C1631      S1635   1.809       .  S
C1632      C1633   1.407       .  A
C1633      C1634   1.399       .  A
C1633      H1640   1.082       .  S
C1634      S1636   1.809       .  S
S1635      H1638   1.399       .  S
S1636      H1637   1.399       .  S
C1641      C1642   1.407       .  A
C1641      C1646   1.422       .  A
C1642      C1643   1.399       .  A
C1642      H1651   1.081       .  S
C1643      C1644   1.422       .  A
C1643      S1647   1.809       .  S
C1644      C1645   1.408       .  A
C1645      C1646   1.399       .  A
C1645      H1652   1.082       .  S
C1646      S1648   1.808       .  S
S1647      H1650   1.399       .  S
S1648      H1649   1.400       .  S
C1653      C1655   1.524       .  S
C1653      C1657   1.542       .  S
C1653      C1656   1.536       .  S
C1653      C1880   1.536       .  S
C1654      C1658   1.535       .  S
C1654      C1660   1.557       .  S
C1654      C1659   1.547       .  S
C1654      C1865   1.532       .  S
C1655      C1663   1.370       .  A
C1656      C1667   1.372       .  A
C1657      C1671   1.376       .  A
C1658      C1661   1.383       .  A
C1659      C1665   1.386       .  A
C1660      C1668   1.390       .  A
C1661      H1674   1.082       .  S
N1662      C1663   1.353       .  A
C1663      H1664   1.083       .  S
C1665      H1675   1.082       .  S
C1665      N1666   1.354       .  A
N1666      C1750   1.425       .  S
C1667      H1673   1.082       .  S
C1668      H1670   1.082       .  S
C1668      N1669   1.358       .  A
N1669      C1761   1.430       .  S
C1671      H1672   1.082       .  S
C1676      C1678   1.533       .  S
C1676      C1680   1.555       .  S
C1676      C1679   1.549       .  S
C1676      C1877   1.532       .  S
C1677      C1681   1.522       .  S
C1677      C1683   1.543       .  S
C1677      C1682   1.536       .  S
C1677      C1868   1.535       .  S
C1678      C1686   1.383       .  A
C1678      C1681   1.385       .  A
C1679      C1690   1.388       .  A
C1679      C1682   1.400       .  A
C1680      C1694   1.389       .  A
C1680      C1683   1.401       .  A
C1681      C1684   1.369       .  A
C1682      C1688   1.373       .  A
C1683      C1691   1.376       .  A
C1684      H1697   1.083       .  S
C1684      N1685   1.352       .  A
N1685      C1686   1.356       .  A
N1685      C1802   1.423       .  S
C1686      H1687   1.082       .  S
C1688      H1698   1.082       .  S
C1688      N1689   1.350       .  A
N1689      C1690   1.356       .  A
N1689      C1810   1.427       .  S
C1690      H1696   1.082       .  S
C1691      H1693   1.082       .  S
C1691      N1692   1.353       .  A
N1692      C1694   1.357       .  A
N1692      C1836   1.429       .  S
C1694      H1695   1.082       .  S
C1699      C1701   1.541       .  S
C1699      C1703   1.545       .  S
C1699      C1702   1.553       .  S
C1699      C1856   1.534       .  S
C1700      C1704   1.539   1_556  S
C1700      C1706   1.527   1_556  S
C1700      C1705   1.538   1_556  S
C1700      C1844   1.538       .  S
C1701      C1709   1.384       .  A
C1702      C1713   1.389       .  A
C1703      C1717   1.387       .  A
C1704      C1707   1.377   1_554  A
C1705      C1711   1.370   1_554  A
C1706      C1714   1.369   1_554  A
C1707      H1720   1.082       .  S
N1708      C1709   1.357       .  A
N1708      C1754   1.429       .  S
C1709      H1710   1.082       .  S
C1711      H1721   1.082       .  S
N1712      C1713   1.357       .  A
N1712      C1762   1.427       .  S
C1713      H1719   1.082       .  S
C1714      H1716   1.083       .  S
N1715      C1717   1.357       .  A
N1715      C1788   1.425       .  S
C1717      H1718   1.082       .  S
C1722      C1724   1.528       .  S
C1722      C1726   1.537       .  S
C1722      C1725   1.538       .  S
C1722      C1853   1.537       .  S
C1723      C1727   1.547       .  S
C1723      C1729   1.555       .  S
C1723      C1728   1.538       .  S
C1723      C1841   1.533       .  S
C1724      C1732   1.370       .  A
C1724      C1727   1.393       .  A
C1725      C1736   1.375       .  A
C1725      C1728   1.394       .  A
C1726      C1740   1.373       .  A
C1726      C1729   1.399       .  A
C1727      C1730   1.388       .  A
C1728      C1734   1.383       .  A
C1729      C1737   1.389       .  A
C1730      H1743   1.082       .  S
C1730      N1731   1.358       .  A
N1731      C1732   1.352       .  A
N1731      C1834   1.427       .  S
C1732      H1733   1.083       .  S
C1734      H1744   1.082       .  S
C1734      N1735   1.356       .  A
N1735      C1736   1.352       .  A
N1735      C1798   1.425       .  S
C1736      H1742   1.082       .  S
C1737      H1739   1.082       .  S
C1737      N1738   1.356       .  A
N1738      C1740   1.352       .  A
N1738      C1809   1.428       .  S
C1740      H1741   1.082       .  S
O1745     Mg1747   2.133       .  S
C1746      H1785   1.081       .  S
C1746      O1759   1.235       .  S
C1746      O1783   1.268       .  A
O1748     Mg1773   2.151       .  S
O1749      C1780   1.268   1_565  A
O1749     Mg1773   2.291       .  S
C1750      O1752   1.269       .  A
C1750      O1764   1.276       .  A
O1751      C1779   1.268   1_655  A
O1752     Mg1784   2.254       .  S
Mg1753     O1759   2.138       .  S
C1754      O1792   1.272       .  A
C1754      O1760   1.276       .  A
O1755      C1762   1.272       .  A
C1757      O1772   1.269       .  A
O1758      C1781   1.267       .  A
C1761      O1774   1.274       .  A
C1761      O1766   1.277       .  A
C1762      O1789   1.276       .  A
Mg1763     O1770   2.138       .  S
O1765      C1769   1.269       .  A
O1767      C1786   1.271       .  A
O1768      C1788   1.273       .  A
O1770      C1781   1.234       .  S
O1771     Mg1790   2.151       .  S
O1772     Mg1784   2.297       .  S
Mg1773     O1789   2.290       .  S
O1776     Mg1784   2.132       .  S
H1778      C1781   1.081       .  S
C1786      O1791   1.272       .  A
O1787      C1788   1.270       .  A
O1793     Mg1795   2.151   1_565  S
C1794      H1833   1.081       .  S
C1794      O1807   1.235       .  S
C1794      O1831   1.268       .  A
Mg1795     O1839   2.294   1_545  S
O1796     Mg1821   2.133       .  S
O1797      C1828   1.269   1_655  A
O1797     Mg1821   2.294       .  S
C1798      O1800   1.272       .  A
C1798      O1812   1.273       .  A
O1799      C1827   1.269   1_565  A
O1800     Mg1832   2.272       .  S
Mg1801     O1807   2.139       .  S
Mg1801     O1803   2.309       .  S
C1802      O1840   1.271       .  A
C1802      O1808   1.273       .  A
O1803      C1810   1.277       .  A
C1805      O1820   1.268       .  A
O1806      C1829   1.267       .  A
O1807     Mg1821   2.171       .  S
O1808     Mg1838   2.287       .  S
C1809      O1822   1.272       .  A
C1809      O1814   1.274       .  A
C1810      O1837   1.270       .  A
Mg1811     O1818   2.136       .  S
Mg1811     O1812   2.287       .  S
O1813      C1817   1.268       .  A
O1814     Mg1821   2.298       .  S
O1815      C1834   1.273       .  A
O1816      C1836   1.275       .  A
O1816     Mg1832   2.308       .  S
O1818     Mg1832   2.170       .  S
O1818      C1829   1.234       .  S
O1819     Mg1838   2.141       .  S
O1820     Mg1832   2.292       .  S
Mg1821     O1837   2.262       .  S
O1824     Mg1832   2.143       .  S
H1826      C1829   1.081       .  S
C1834      O1839   1.273       .  A
O1835      C1836   1.273       .  A
C1841      C1842   1.406       .  A
C1841      C1846   1.418       .  A
C1842      C1843   1.399       .  A
C1842      H1851   1.080       .  S
C1843      C1844   1.424       .  A
C1843      S1847   1.811       .  S
C1844      C1845   1.409       .  A
C1845      C1846   1.404       .  A
C1845      H1852   1.080       .  S
C1846      S1848   1.811       .  S
S1847      H1850   1.398       .  S
S1848      H1849   1.406       .  S
C1853      C1854   1.407       .  A
C1853      C1858   1.422       .  A
C1854      C1855   1.399       .  A
C1854      H1863   1.082       .  S
C1855      C1856   1.422       .  A
C1855      S1859   1.808       .  S
C1856      C1857   1.408       .  A
C1857      C1858   1.400       .  A
C1857      H1864   1.081       .  S
C1858      S1860   1.810       .  S
S1859      H1862   1.399       .  S
S1860      H1861   1.398       .  S
C1865      C1866   1.406       .  A
C1865      C1870   1.423       .  A
C1866      C1867   1.399       .  A
C1866      H1875   1.082       .  S
C1867      C1868   1.423       .  A
C1867      S1871   1.809       .  S
C1868      C1869   1.407       .  A
C1869      C1870   1.399       .  A
C1869      H1876   1.082       .  S
C1870      S1872   1.809       .  S
S1871      H1874   1.399       .  S
S1872      H1873   1.399       .  S
C1877      C1878   1.407       .  A
C1877      C1882   1.422       .  A
C1878      C1879   1.399       .  A
C1878      H1887   1.081       .  S
C1879      C1880   1.422       .  A
C1879      S1883   1.809       .  S
C1880      C1881   1.408       .  A
C1881      C1882   1.399       .  A
C1881      H1888   1.082       .  S
C1882      S1884   1.808       .  S
S1883      H1886   1.399       .  S
S1884      H1885   1.400       .  S
