geometry optimzed in LAMMPS
_audit_creation_date              2020-12-01 
_audit_creation_method            'lammps2cif' 
_symmetry_space_group_name_H-M    'P1' 
_symmetry_Int_Tables_number       1 
_symmetry_cell_setting            triclinic 
loop_ 
_symmetry_equiv_pos_as_xyz 
  x,y,z 
_cell_length_a                    37.87885616 
_cell_length_b                    37.88024322498102 
_cell_length_c                    33.88980841840402 
_cell_angle_alpha                 90.10327091981084 
_cell_angle_beta                  90.04047424808176 
_cell_angle_gamma                 119.92653027356278 
loop_ 
_atom_site_label 
_atom_site_type_symbol 
_atom_site_fract_x 
_atom_site_fract_y 
_atom_site_fract_z 
_atom_site_charge 
N1          N  0.00244962  0.46037090  0.03478447    -0.36500
N2          N  0.00390898  0.46835811  0.94907995    -0.57100
N3          N  0.00204347  0.54409695  0.95755220    -0.36500
N4          N  0.00644284  0.53890593  0.04334502    -0.57100
C5          C  0.00955837  0.43001149  0.02398662     0.27100
C6          C  0.01071381  0.46724327  0.07386463     0.27100
C7          C  0.00935113  0.54488909  0.91835200     0.27100
C8          C  0.01036901  0.58196516  0.96820375     0.27100
C9          C  0.99761394  0.42997665  0.95151026     0.35700
C10         C  0.99788170  0.47429473  0.91087278     0.35700
C11         C  0.00000297  0.52678221  0.08148125     0.35700
C12         C  0.99998561  0.57088634  0.04081792     0.35700
C13         C  0.02202921  0.41711696  0.05670622    -0.21800
C14         C  0.02294991  0.44070561  0.08809072    -0.21800
C15         C  0.02198513  0.58361583  0.90386656    -0.21800
C16         C  0.02259744  0.60697794  0.93528552    -0.21800
C17         C  0.98799042  0.41163808  0.91463487    -0.22800
C18         C  0.98805328  0.43962591  0.88894620    -0.22800
C19         C  0.98958714  0.55129781  0.10320352    -0.22800
C20         C  0.98969727  0.57927272  0.07749509    -0.22800
C21         C  0.00283026  0.41202377  0.98598027    -0.18200
C22         C  0.00540538  0.49525100  0.09746380    -0.18200
C23         C  0.00532110  0.59407726  0.00638896    -0.18200
C24         C  0.00340942  0.51128795  0.89494259    -0.18200
H25         H  0.02952939  0.39305959  0.05792239     0.14700
H26         H  0.03137733  0.43831945  0.11807437     0.14700
H27         H  0.02990630  0.59400984  0.87374058     0.14700
H28         H  0.03100564  0.63877533  0.93398511     0.14700
H29         H  0.98193004  0.38137305  0.90692638     0.13000
H30         H  0.98185648  0.43501466  0.85761301     0.13000
H31         H  0.98267086  0.54933649  0.13437024     0.13000
H32         H  0.98297253  0.60308713  0.08498482     0.08800
H33         H  0.98836415  0.47240885  0.01756561     0.26300
H34         H  0.98812609  0.51829319  0.97512638     0.26300
N35         N  0.99578078  0.45309381  0.45804781    -0.36500
N36         N  0.00365611  0.53326679  0.44945714    -0.57100
N37         N  0.00083144  0.53986238  0.53498430    -0.36500
N38         N  0.99742647  0.46194252  0.54373464    -0.57100
C39         C  0.00452061  0.45977048  0.41905001     0.27100
C40         C  0.00223126  0.42242583  0.46920920     0.27100
C41         C  0.01181331  0.57832095  0.52400532     0.27100
C42         C  0.00911422  0.54084970  0.57396471     0.27100
C43         C  0.99596927  0.52051470  0.41150044     0.35700
C44         C  0.99843310  0.56602462  0.45200267     0.35700
C45         C  0.98917835  0.42290590  0.54139501     0.35700
C46         C  0.99159475  0.46855006  0.58180028     0.35700
C47         C  0.01606069  0.43258324  0.40512745    -0.21800
C48         C  0.01445655  0.40894873  0.43665967    -0.21800
C49         C  0.02706529  0.60404532  0.55640504    -0.21800
C50         C  0.02541998  0.58039909  0.58794342    -0.21800
C51         C  0.98587934  0.54532691  0.38993711    -0.22800
C52         C  0.98754217  0.57419353  0.41556535    -0.22800
C53         C  0.97821904  0.40470182  0.57822254    -0.22800
C54         C  0.97953085  0.43353207  0.60374654    -0.22800
C55         C  0.00067117  0.48857278  0.39539762    -0.18200
C56         C  0.99520119  0.40480145  0.50739568    -0.18200
C57         C  0.00027041  0.50665635  0.59763097    -0.18200
C58         C  0.00579462  0.59017865  0.48617451    -0.18200
H59         H  0.02460166  0.42987305  0.37528740     0.14700
H60         H  0.02128886  0.38443161  0.43553870     0.14700
H61         H  0.03791077  0.63643089  0.55729574     0.14700
H62         H  0.03481379  0.59106236  0.61784952     0.14700
H63         H  0.97832911  0.54305589  0.35888694     0.13000
H64         H  0.98166017  0.59856958  0.40814684     0.13000
H65         H  0.97078751  0.37409685  0.58612834     0.13000
H66         H  0.97319451  0.42942840  0.63505860     0.13000
H67         H  0.98223875  0.46588248  0.47506763     0.26300
H68         H  0.98421544  0.51382596  0.51797727     0.26300
O69         O  0.98021939  0.05246584  0.02902268    -0.88200
C70         C  0.92513060  0.96398691  0.94449857     0.87800
Mg71       Mg  0.04307575  0.09973747  0.02487516     1.58100
O72         O  0.95022067  0.93099163  0.03176417    -0.88000
O73         O  0.94077038  0.00305758  0.06906290    -0.75300
C74         C  0.14547040  0.00455650  0.97775715     0.92800
O75         O  0.99715168  0.05982651  0.93577463    -0.75100
O76         O  0.14640836  0.03837334  0.97322792    -0.82600
Mg77       Mg  0.94309091  0.04239923  0.97740659     1.58000
C78         C  0.00564973  0.85947911  0.02230132     0.92800
O79         O  0.88446303  0.02737967  0.01187410    -0.80900
H80         H  0.94563188  0.92245231  0.09015479    -0.06200
C81         C  0.03131486  0.96131888  0.94121076     0.87700
O82         O  0.06260627  0.06336907  0.06487076    -0.75400
O83         O  0.92803458  0.97974156  0.97715794    -0.88200
O84         O  0.97329628  0.85968640  0.01230708    -0.81000
C85         C  0.85728767  0.85318232  0.98921947     0.92900
C86         C  0.85269813  0.99561393  0.02428068     0.92700
Mg87       Mg  0.05580399  0.95839721  0.02602733     1.58000
O88         O  0.11355517  0.97293314  0.99011339    -0.80900
O89         O  0.00209415  0.94101306  0.06830356    -0.75100
O90         O  0.85795445  0.88601342  0.99914022    -0.81000
O91         O  0.95948858  0.10856148  0.97705535    -0.82700
O92         O  0.14023103  0.11409162  0.00543177    -0.81000
C93         C  0.96481527  0.93067855  0.06429878     0.87200
O94         O  0.07080015  0.02105969  0.02695353    -0.88100
O95         O  0.01827398  0.94908668  0.97477448    -0.88300
O96         O  0.05781401  0.99823075  0.93464728    -0.75300
Mg97       Mg  0.90257336  0.94621160  0.03078954     1.58000
O98         O  0.88984928  0.85177621  0.98420777    -0.82700
H99         H  0.97907531  0.06104276  0.08712626    -0.06400
O100        O  0.04891348  0.07033822  0.97270524    -0.88000
H101        H  0.05383107  0.07883333  0.91433493    -0.06200
H102        H  0.08227998  0.02566738  0.08488928    -0.06400
C103        C  0.03447128  0.07051785  0.94006492     0.87100
C104        C  0.96703752  0.04007340  0.06253794     0.87700
C105        C  0.07275710  0.03637089  0.05971845     0.87800
H106        H  0.01901438  0.94032466  0.91666456    -0.06400
O107        O  0.93510599  0.93692316  0.93924088    -0.75400
Mg108      Mg  0.09617456  0.05468092  0.97334973     1.58000
H109        H  0.91489002  0.97429024  0.91956188    -0.06400
C110        C  0.99322591  0.14179431  0.97998797     0.92800
O111        O  0.10998787  0.14942243  0.02225411    -0.82600
C112        C  0.14203106  0.14694321  0.01720995     0.92800
O113        O  0.85243855  0.96230569  0.03013977    -0.82600
Mg114      Mg  0.95576758  0.90176633  0.97939656     1.58200
O115        O  0.02597518  0.14249112  0.99059713    -0.81000
O116        O  0.03964842  0.89225542  0.02589775    -0.82700
O117        O  0.02134968  0.94766506  0.52037871    -0.88200
C118        C  0.06787031  0.03197819  0.43141156     0.87800
Mg119      Mg  0.95878966  0.89932931  0.52083605     1.58100
O120        O  0.05041699  0.06866694  0.52051087    -0.88000
O121        O  0.06385426  0.99932649  0.55684950    -0.75300
C122        C  0.85099680  0.99000857  0.48364313     0.92800
O123        O  0.99670752  0.93473703  0.42839519    -0.75100
O124        O  0.85017579  0.95631614  0.47847338    -0.82600
Mg125      Mg  0.05429821  0.95527743  0.46604472     1.58000
C126        C  0.99312397  0.13825805  0.51739807     0.92800
O127        O  0.11544391  0.97303924  0.49659526    -0.80900
H128        H  0.06046985  0.07968601  0.57832467    -0.06200
C129        C  0.96135606  0.03307255  0.43737004     0.87700
O130        O  0.94076690  0.93565847  0.56256739    -0.75400
O131        O  0.06839010  0.01790415  0.46413675    -0.88200
O132        O  0.02467254  0.13798077  0.50472486    -0.81000
C133        C  0.13893878  0.14606533  0.47183802     0.92900
C134        C  0.14775151  0.00540082  0.50711320     0.92700
Mg135      Mg  0.94445536  0.03928050  0.52406616     1.58000
O136        O  0.88356889  0.02231158  0.49366354    -0.80900
O137        O  0.00192967  0.05911980  0.56158853    -0.75100
O138        O  0.13989256  0.11389657  0.48117367    -0.81000
O139        O  0.03940182  0.88913730  0.46748187    -0.82700
O140        O  0.85901598  0.88145683  0.50797102    -0.81000
C141        C  0.03885107  0.07006276  0.55425645     0.87200
O142        O  0.93016683  0.97668053  0.52552696    -0.88100
O143        O  0.97723377  0.04701183  0.46977408    -0.88300
O144        O  0.93485270  0.99575210  0.43287595    -0.75300
Mg145      Mg  0.09819855  0.05437123  0.51567235     1.58000
O146        O  0.10544329  0.14604481  0.46878813    -0.82700
H147        H  0.02758133  0.94238218  0.57829404    -0.06400
O148        O  0.94823035  0.92585568  0.46916539    -0.88000
H149        H  0.93815648  0.91390467  0.41147504    -0.06200
H150        H  0.92162055  0.97336838  0.58391018    -0.06400
C151        C  0.95978161  0.92393795  0.43555839     0.87100
C152        C  0.03729106  0.96195775  0.55268848     0.87700
C153        C  0.93005008  0.96227878  0.55822830     0.87800
H154        H  0.97114043  0.05291274  0.41195726    -0.06400
O155        O  0.05710454  0.05859508  0.42720378    -0.75400
Mg156      Mg  0.90050176  0.94067309  0.47387862     1.58000
H157        H  0.07581275  0.02062033  0.40560094    -0.06400
C158        C  0.00619989  0.85615514  0.47385256     0.92800
O159        O  0.89263944  0.84853454  0.52091667    -0.82600
C160        C  0.85943012  0.84911630  0.51759282     0.92800
O161        O  0.14841184  0.03902911  0.51188140    -0.82600
Mg162      Mg  0.03961969  0.09518324  0.46925091     1.58200
O163        O  0.97457120  0.85628390  0.48660727    -0.81000
O164        O  0.95960139  0.10541173  0.52300666    -0.82700
N165        N  0.53597862  0.00604283  0.04469786    -0.36500
N166        N  0.54115475  0.99848216  0.95937720    -0.57100
N167        N  0.46620188  0.00147256  0.94981945    -0.36500
N168        N  0.45876192  0.00472732  0.03528447    -0.57100
C169        C  0.56648414  0.99721617  0.04276586     0.27100
C170        C  0.52347551  0.00136264  0.08273572     0.27100
C171        C  0.47164212  0.99247826  0.91241634     0.27100
C172        C  0.42752919  0.99445056  0.95249589     0.27100
C173        C  0.57777170  0.00323871  0.96978877     0.35700
C174        C  0.54140877  0.00172392  0.91959991     0.35700
C175        C  0.46449058  0.01296681  0.07440157     0.35700
C176        C  0.42740365  0.01007196  0.02420576     0.35700
C177        C  0.57380387  0.98742144  0.08017234    -0.21800
C178        C  0.54659525  0.98980043  0.10526550    -0.21800
C179        C  0.43613446  0.97996113  0.89097268    -0.21800
C180        C  0.40836279  0.98121609  0.91618799    -0.21800
C181        C  0.60103872  0.00869806  0.93635093    -0.22800
C182        C  0.57811248  0.00796247  0.90462982    -0.22800
C183        C  0.43643751  0.02332097  0.08830212    -0.22800
C184        C  0.41285546  0.02131415  0.05659032    -0.22800
C185        C  0.58954963  0.00008725  0.00872956    -0.18200
C186        C  0.49312073  0.00902295  0.09819579    -0.18200
C187        C  0.40991115  0.00224061  0.98593064    -0.18200
C188        C  0.50832381  0.99723496  0.89637625    -0.18200
H189        H  0.59659560  0.97965366  0.08876593     0.14700
H190        H  0.54436293  0.98393330  0.13666972     0.14700
H191        H  0.43083903  0.97112913  0.86019372     0.14700
H192        H  0.37770823  0.97377138  0.90836502     0.14700
H193        H  0.63125807  0.01245557  0.93482104     0.13000
H194        H  0.58728745  0.01119367  0.87400745     0.13000
H195        H  0.43300724  0.03109621  0.11825399     0.13000
H196        H  0.38763369  0.02710959  0.05742978     0.13000
H197        H  0.52735425  0.01887194  0.02236671     0.26300
H198        H  0.48892231  0.01602103  0.97079961     0.26300
N199        N  0.54120199  0.01157845  0.45089120    -0.36500
N200        N  0.46377266  0.00936229  0.45768990    -0.57100
N201        N  0.46800072  0.00483817  0.54373389    -0.36500
N202        N  0.54267170  0.00182892  0.53679438    -0.57100
C203        C  0.53003634  0.00718959  0.41237909     0.27100
C204        C  0.57142745  0.00251498  0.45413199     0.27100
C205        C  0.42945200  0.99761185  0.53935161     0.27100
C206        C  0.47171280  0.99481891  0.58124386     0.27100
C207        C  0.47033241  0.01771554  0.41871597     0.35700
C208        C  0.43175318  0.01398747  0.46758528     0.35700
C209        C  0.57959786  0.00675480  0.52763789     0.35700
C210        C  0.54153652  0.00417875  0.57659905     0.35700
C211        C  0.55401740  0.99596724  0.39085590    -0.21800
C212        C  0.58018041  0.99317979  0.41710757    -0.21800
C213        C  0.40851635  0.98312486  0.57458875    -0.21800
C214        C  0.43519943  0.98145095  0.60102544    -0.21800
C215        C  0.44224709  0.02753339  0.40377464    -0.22800
C216        C  0.41779584  0.02514029  0.43470176    -0.22800
C217        C  0.60170453  0.01153240  0.56184208    -0.22800
C218        C  0.57769578  0.01011466  0.59280300    -0.22800
C219        C  0.49947140  0.01388254  0.39582530    -0.18200
C220        C  0.59269380  0.00419927  0.48915551    -0.18200
C221        C  0.50761972  0.99907829  0.59869368    -0.18200
C222        C  0.41322349  0.00584243  0.50522194    -0.18200
H223        H  0.55280427  0.99025358  0.35944603     0.14700
H224        H  0.60307370  0.98516426  0.40964202     0.14700
H225        H  0.37730418  0.97490856  0.58075117     0.14700
H226        H  0.42848185  0.97158677  0.63141064     0.14700
H227        H  0.43936433  0.03518811  0.37364019     0.13000
H228        H  0.39234155  0.03054413  0.43303567     0.13000
H229        H  0.63189411  0.01532855  0.56431805     0.13000
H230        H  0.58580822  0.01271148  0.62372560     0.13000
H231        H  0.53161206  0.02383364  0.47298517     0.26300
H232        H  0.49156473  0.02007597  0.52378205     0.26300
N233        N  0.46441739  0.46387462  0.04365277    -0.36500
N234        N  0.54146652  0.53971060  0.03824450    -0.57100
N235        N  0.53270602  0.53706639  0.95256701    -0.36500
N236        N  0.45833233  0.45834522  0.95783482    -0.57100
C237        C  0.47804805  0.46778919  0.08122691     0.27100
C238        C  0.43426025  0.42482520  0.03899261     0.27100
C239        C  0.57142375  0.56820259  0.95668682     0.27100
C240        C  0.52760708  0.52529088  0.91425621     0.27100
C241        C  0.53572129  0.53903491  0.07766673     0.35700
C242        C  0.57184020  0.57761032  0.02952783     0.35700
C243        C  0.42135116  0.42651141  0.96709702     0.35700
C244        C  0.45750267  0.46511388  0.91874153     0.35700
C245        C  0.45624086  0.43084761  0.10062738    -0.21800
C246        C  0.42853389  0.40378270  0.07402797    -0.21800
C247        C  0.59106460  0.57654060  0.92055001    -0.21800
C248        C  0.56350409  0.54942187  0.89382559    -0.21800
C249        C  0.56275975  0.57655301  0.09406506    -0.22800
C250        C  0.58577362  0.60094238  0.06357574    -0.22800
C251        C  0.39707282  0.41264131  0.93367071    -0.22800
C252        C  0.41989561  0.43717448  0.90307321    -0.22800
C253        C  0.50781391  0.50437128  0.09927245    -0.18200
C254        C  0.41009013  0.40823670  0.00479245    -0.18200
C255        C  0.49086266  0.49491310  0.89669457    -0.18200
C256        C  0.58886922  0.59075303  0.99165686    -0.18200
H257        H  0.45966980  0.42414604  0.13095753     0.14700
H258        H  0.40646714  0.37223274  0.07994216     0.14700
H259        H  0.62200856  0.59989727  0.91403752     0.14700
H260        H  0.56925048  0.54784936  0.86277379     0.14700
H261        H  0.56578581  0.58543042  0.12479518     0.13000
H262        H  0.61007320  0.63224563  0.06619556     0.13000
H263        H  0.36622313  0.38733940  0.93151247     0.13000
H264        H  0.40992941  0.43454330  0.87273787     0.13000
H265        H  0.47177621  0.48751247  0.02396002     0.26300
H266        H  0.50984716  0.52759429  0.97357444     0.26300
N267        N  0.45648775  0.45837527  0.53786640    -0.36500
N268        N  0.46150395  0.46342221  0.45222403    -0.57100
N269        N  0.54036687  0.53776578  0.45815319    -0.36500
N270        N  0.53361110  0.53484933  0.54359358    -0.57100
C271        C  0.41801015  0.42967404  0.52796608     0.27100
C272        C  0.45620482  0.46758632  0.57645523     0.27100
C273        C  0.53299065  0.53760757  0.41904934     0.27100
C274        C  0.57112186  0.57544942  0.46757976     0.27100
C275        C  0.42888171  0.42559488  0.45600809     0.35700
C276        C  0.47301869  0.46740423  0.41397414     0.35700
C277        C  0.52827771  0.52364195  0.58195158     0.35700
C278        C  0.57266279  0.56525951  0.54001322     0.35700
C279        C  0.39309769  0.42016112  0.56081047    -0.21800
C280        C  0.41714268  0.44421625  0.59133841    -0.21800
C281        C  0.55958834  0.57559746  0.40338283    -0.21800
C282        C  0.58378038  0.59936701  0.43391376    -0.21800
C283        C  0.41940748  0.40562627  0.41993049    -0.22800
C284        C  0.44750073  0.43195469  0.39340450    -0.22800
C285        C  0.56408436  0.54705267  0.60281612    -0.22800
C286        C  0.59209322  0.57358039  0.57633556    -0.22800
C287        C  0.40553492  0.41009995  0.49077312    -0.18200
C288        C  0.49070699  0.49489374  0.59902118    -0.18200
C289        C  0.58998394  0.58768258  0.50508914    -0.18200
C290        C  0.50450002  0.50346980  0.39674691    -0.18200
H291        H  0.36097703  0.39798806  0.56274396     0.14700
H292        H  0.40704198  0.44417992  0.62121148     0.14700
H293        H  0.56174843  0.58514937  0.37297926     0.14700
H294        H  0.60824916  0.63055779  0.43135196     0.14700
H295        H  0.39454955  0.37543042  0.41321076     0.13000
H296        H  0.44862143  0.42577582  0.36238252     0.13000
H297        H  0.56934893  0.54562369  0.63401552     0.13000
H298        H  0.62303584  0.59668470  0.58327540     0.13000
H299        H  0.48223092  0.46768320  0.52060435     0.26300
H300        H  0.52844258  0.51237727  0.47625742     0.26300
C301        C  0.48770930  0.49443947  0.85278318    -0.01200
C302        C  0.49025467  0.52803705  0.83301555    -0.09200
C303        C  0.48939278  0.52904431  0.79183702    -0.18000
C304        C  0.48575349  0.49610626  0.76891683     0.04400
C305        C  0.48221796  0.46164127  0.78924707     0.18500
C306        C  0.48352773  0.46124704  0.83072975    -0.19500
C307        C  0.47763192  0.42785243  0.76806086    -0.20700
C308        C  0.47681877  0.42757801  0.72702957    -0.19300
C309        C  0.48111042  0.46129866  0.70608060     0.19900
C310        C  0.48568771  0.49613689  0.72666553     0.02000
C311        C  0.49062053  0.52965660  0.70399348    -0.14000
C312        C  0.49135651  0.52867770  0.66280907    -0.11700
C313        C  0.48716781  0.49443344  0.64282626     0.01600
C314        C  0.48159485  0.46065801  0.66458255    -0.23900
H315        H  0.49333108  0.55387728  0.84966002     0.09600
H316        H  0.49161096  0.55602228  0.77888630     0.13200
H317        H  0.48164217  0.43522843  0.84600539     0.11900
H318        H  0.47471354  0.40142205  0.78335291     0.13100
H319        H  0.47330637  0.40094803  0.71154482     0.12100
H320        H  0.49459586  0.55731395  0.71715326     0.09200
H321        H  0.49579041  0.55507369  0.64634188     0.12500
H322        H  0.47859838  0.43422551  0.64907462     0.14300
C323        C  0.50960752  0.50609904  0.14313462    -0.01200
C324        C  0.54393669  0.51080824  0.16329014    -0.09200
C325        C  0.54519019  0.51161137  0.20451946    -0.18000
C326        C  0.51176551  0.50745017  0.22691917     0.04400
C327        C  0.47707056  0.50280268  0.20606030     0.18500
C328        C  0.47635448  0.50221316  0.16465861    -0.19500
C329        C  0.44317286  0.49861560  0.22659284    -0.20700
C330        C  0.44284774  0.49893917  0.26756787    -0.19300
C331        C  0.47633032  0.50324873  0.28904481     0.19900
C332        C  0.51131272  0.50749680  0.26913812     0.02000
C333        C  0.54405510  0.51123107  0.29244191    -0.14000
C334        C  0.54181763  0.51022422  0.33361656    -0.11700
C335        C  0.50723007  0.50589215  0.35288559     0.01600
C336        C  0.47480662  0.50290704  0.33043899    -0.23900
H337        H  0.56982396  0.51368585  0.14696838     0.09600
H338        H  0.57266270  0.51540090  0.21792928     0.13200
H339        H  0.44976895  0.49856681  0.14894870     0.11900
H340        H  0.41666382  0.49502702  0.21082860     0.13100
H341        H  0.41608420  0.49556794  0.28258697     0.12100
H342        H  0.57161631  0.51453064  0.27978784     0.09200
H343        H  0.56711933  0.51251143  0.35060675     0.12500
H344        H  0.44805386  0.49968933  0.34540337     0.14300
C345        C  0.51179973  0.99724171  0.85259827    -0.01200
C346        C  0.50781908  0.96311207  0.83259363    -0.09200
C347        C  0.50846060  0.96223128  0.79129696    -0.18000
C348        C  0.51302500  0.99570075  0.76869431     0.04400
C349        C  0.51797509  0.03059497  0.78946164     0.18500
C350        C  0.51729777  0.03100735  0.83092410    -0.19500
C351        C  0.52291461  0.06468803  0.76876263    -0.20700
C352        C  0.52219734  0.06471117  0.72776576    -0.19300
C353        C  0.51658663  0.03066625  0.70635983     0.19900
C354        C  0.51230397  0.99573286  0.72638719     0.02000
C355        C  0.50702095  0.96232178  0.70309546    -0.14000
C356        C  0.50569740  0.96353638  0.66184967    -0.11700
C357        C  0.50951359  0.99788148  0.64255646     0.01600
C358        C  0.51499855  0.03132674  0.66493072    -0.23900
H359        H  0.50352361  0.93677114  0.84905532     0.09600
H360        H  0.50484777  0.93478561  0.77794642     0.13200
H361        H  0.52041947  0.05744436  0.84653514     0.11900
H362        H  0.52693081  0.09142588  0.78442443     0.13100
H363        H  0.52572625  0.09148615  0.71267343     0.12100
H364        H  0.50367801  0.93479178  0.71585782     0.09200
H365        H  0.50145286  0.93745219  0.64484831     0.12500
H366        H  0.51803423  0.05795121  0.64988682     0.14300
C367        C  0.49047748  0.01127770  0.14197413    -0.01200
C368        C  0.45766118  0.98026693  0.16249769    -0.09200
C369        C  0.45674255  0.98025468  0.20376056    -0.18000
C370        C  0.48899553  0.01142723  0.22593226     0.04400
C371        C  0.52178058  0.04335708  0.20477004     0.18500
C372        C  0.52220437  0.04299056  0.16326128    -0.19500
C373        C  0.55430016  0.07513771  0.22514212    -0.20700
C374        C  0.55537091  0.07570694  0.26617493    -0.19300
C375        C  0.52404681  0.04440696  0.28794528     0.19900
C376        C  0.49024615  0.01185849  0.26820366     0.02000
C377        C  0.45955853  0.98090527  0.29169510    -0.14000
C378        C  0.46260695  0.98203949  0.33282982    -0.11700
C379        C  0.49605722  0.01397732  0.35197841     0.01600
C380        C  0.52658303  0.04521362  0.32941213    -0.23900
H381        H  0.43299462  0.95544891  0.14644834     0.09600
H382        H  0.43060297  0.95517553  0.21739395     0.13200
H383        H  0.54768814  0.06698035  0.14733071     0.11900
H384        H  0.57929478  0.09961856  0.20919829     0.13100
H385        H  0.58114275  0.10063403  0.28099845     0.12100
H386        H  0.43301574  0.95518304  0.27920270     0.09200
H387        H  0.43884831  0.95758467  0.34990731     0.12500
H388        H  0.55253487  0.06994088  0.34427406     0.14300
C389        C  0.17792422  0.18524712  0.46747219    -0.01200
C390        C  0.17772529  0.22214487  0.46526637    -0.09200
C391        C  0.21392870  0.25955626  0.46762594    -0.18000
C392        C  0.25195455  0.26147948  0.47234342     0.04400
C393        C  0.25227284  0.22407505  0.47254746     0.18500
C394        C  0.21558683  0.18661166  0.47005254    -0.19500
C395        C  0.28912933  0.22418680  0.47633966    -0.20700
C396        C  0.32567802  0.26058127  0.48072787    -0.19300
C397        C  0.32636022  0.29785111  0.48163095     0.19900
C398        C  0.28955754  0.29898225  0.47732841     0.02000
C399        C  0.29208893  0.33758037  0.47867530    -0.14000
C400        C  0.32955838  0.37335182  0.48359203    -0.11700
C401        C  0.36551956  0.37185164  0.48764589     0.01600
C402        C  0.36374853  0.33406668  0.48678579    -0.23900
H403        H  0.14923577  0.22223769  0.46317872     0.09600
H404        H  0.21102339  0.28641100  0.46637839     0.13200
H405        H  0.21634281  0.15840526  0.47154710     0.11900
H406        H  0.28966310  0.19584353  0.47631335     0.13100
H407        H  0.35362146  0.25952994  0.48381269     0.12100
H408        H  0.26571511  0.34117014  0.47597186     0.09200
H409        H  0.33057686  0.40244427  0.48402032     0.12500
H410        H  0.39173563  0.33303514  0.48969952     0.14300
C411        C  0.63005603  0.62586086  0.50799595    -0.01200
C412        C  0.66572360  0.62382247  0.51186550    -0.09200
C413        C  0.70351815  0.65926413  0.51572822    -0.18000
C414        C  0.70683861  0.69818741  0.51546395     0.04400
C415        C  0.67043340  0.70000639  0.51073168     0.18500
C416        C  0.63251301  0.66399107  0.50744790    -0.19500
C417        C  0.67213074  0.73774586  0.50913086    -0.20700
C418        C  0.70925709  0.77383180  0.51181928    -0.19300
C419        C  0.74562372  0.77313259  0.51665869     0.19900
C420        C  0.74493110  0.73532258  0.51911927     0.02000
C421        C  0.78246798  0.73641655  0.52485061    -0.14000
C422        C  0.81918850  0.77335501  0.52626550    -0.11700
C423        C  0.81997703  0.81056256  0.52214322     0.01600
C424        C  0.78282110  0.81011500  0.51820793    -0.23900
H425        H  0.66419953  0.59449338  0.51220439     0.09600
H426        H  0.72955063  0.65513434  0.51853943     0.13200
H427        H  0.60479649  0.66548947  0.50428301     0.11900
H428        H  0.64455959  0.73937989  0.50540286     0.13100
H429        H  0.70953379  0.80253356  0.50997081     0.12100
H430        H  0.78459676  0.70924076  0.52789672     0.09200
H431        H  0.84726646  0.77260364  0.52939569     0.12500
H432        H  0.78283750  0.83861208  0.51514032     0.14300
C433        C  0.18611084  0.00438101  0.51215719    -0.01200
C434        C  0.22114877  0.03854223  0.52677642    -0.09200
C435        C  0.25834076  0.03931608  0.52837801    -0.18000
C436        C  0.26191157  0.00588058  0.51490495     0.04400
C437        C  0.22621654  0.97113446  0.50040750     0.18500
C438        C  0.18881887  0.97049120  0.49964432    -0.19500
C439        C  0.22822116  0.93761920  0.48573338    -0.20700
C440        C  0.26516421  0.93819658  0.48421897    -0.19300
C441        C  0.30088987  0.97200757  0.49798058     0.19900
C442        C  0.29972119  0.00604892  0.51431898     0.02000
C443        C  0.33655083  0.03886684  0.52899617    -0.14000
C444        C  0.37305917  0.03835485  0.52636838    -0.11700
C445        C  0.37401849  0.00536075  0.50907647     0.01600
C446        C  0.33792246  0.97211036  0.49525769    -0.23900
H447        H  0.22005040  0.06522895  0.53651709     0.09600
H448        H  0.28389064  0.06694959  0.53943395     0.13200
H449        H  0.16204828  0.94399316  0.48792607     0.11900
H450        H  0.20112960  0.91104330  0.47464958     0.13100
H451        H  0.26582316  0.91205579  0.47203519     0.12100
H452        H  0.33820272  0.06532927  0.54269314     0.09200
H453        H  0.40085339  0.06403332  0.53752736     0.12500
H454        H  0.33885383  0.94640847  0.48224167     0.14300
C455        C  0.81264093  0.99135557  0.47983240    -0.01200
C456        C  0.77512799  0.95515142  0.47692754    -0.09200
C457        C  0.73856339  0.95573162  0.47670737    -0.18000
C458        C  0.73819868  0.99282014  0.47934962     0.04400
C459        C  0.77634337  0.02957308  0.48137782     0.18500
C460        C  0.81292891  0.02852224  0.48172569    -0.19500
C461        C  0.77778283  0.06717879  0.48357917    -0.20700
C462        C  0.74209757  0.06912892  0.48434262    -0.19300
C463        C  0.70405795  0.03351408  0.48324435     0.19900
C464        C  0.70146405  0.99477674  0.48055447     0.02000
C465        C  0.66218910  0.95972126  0.47984824    -0.14000
C466        C  0.62718889  0.96305159  0.48246072    -0.11700
C467        C  0.63013584  0.00121049  0.48539596     0.01600
C468        C  0.66851127  0.03636617  0.48538953    -0.23900
H469        H  0.77386722  0.92596644  0.47567282     0.09600
H470        H  0.71111995  0.92655429  0.47476925     0.13200
H471        H  0.84171184  0.05679056  0.48399993     0.11900
H472        H  0.80674937  0.09531592  0.48498161     0.13100
H473        H  0.74427372  0.09871667  0.48629055     0.12100
H474        H  0.65742756  0.92927746  0.47777953     0.09200
H475        H  0.59755392  0.93567804  0.48233676     0.12500
H476        H  0.67056977  0.06590039  0.48767488     0.14300
C477        C  0.18285159  0.18364941  0.02268284    -0.01200
C478        C  0.21811600  0.18205932  0.01331272    -0.09200
C479        C  0.25631094  0.21730399  0.01296271    -0.18000
C480        C  0.26067215  0.25575623  0.02184871     0.04400
C481        C  0.22526399  0.25696238  0.03371849     0.18500
C482        C  0.18693436  0.22115700  0.03406522    -0.19500
C483        C  0.22809376  0.29411146  0.04394034    -0.20700
C484        C  0.26503947  0.33035047  0.04121207    -0.19300
C485        C  0.30003556  0.33042943  0.02783957     0.19900
C486        C  0.29855986  0.29309529  0.01838947     0.02000
C487        C  0.33480869  0.29497272  0.00474236    -0.14000
C488        C  0.37058326  0.33231529  0.99990300    -0.11700
C489        C  0.37153939  0.36879361  0.00881567     0.01600
C490        C  0.33642124  0.36773591  0.02325601    -0.23900
H491        H  0.21616582  0.15353039  0.00491708     0.09600
H492        H  0.28169238  0.21347636  0.00485143     0.13200
H493        H  0.16004933  0.22283043  0.04185558     0.11900
H494        H  0.20136036  0.29524683  0.05344088     0.13100
H495        H  0.26603695  0.35864573  0.04878544     0.12100
H496        H  0.33642722  0.26821768  0.99705746     0.09200
H497        H  0.39779483  0.33279686  0.98929952     0.12500
H498        H  0.33745602  0.39612514  0.03056161     0.14300
C499        C  0.62793378  0.62977539  0.98869559    -0.01200
C500        C  0.62837002  0.66516649  0.97633958    -0.09200
C501        C  0.66491839  0.70229991  0.97489315    -0.18000
C502        C  0.70231524  0.70490890  0.98552793     0.04400
C503        C  0.70157559  0.66836542  0.99680916     0.18500
C504        C  0.66452198  0.63145554  0.99881565    -0.19500
C505        C  0.73783126  0.66880239  0.00582405    -0.20700
C506        C  0.77502212  0.70472918  0.00352443    -0.19300
C507        C  0.77677655  0.74138711  0.99345183     0.19900
C508        C  0.74041800  0.74225598  0.98511544     0.02000
C509        C  0.74380643  0.78058607  0.97764019    -0.14000
C510        C  0.78169594  0.81638672  0.97834272    -0.11700
C511        C  0.81748817  0.81515204  0.98556406     0.01600
C512        C  0.81473772  0.77740439  0.99266144    -0.23900
H513        H  0.60018841  0.66406256  0.96813277     0.09600
H514        H  0.66301154  0.72828230  0.96487803     0.13200
H515        H  0.66401426  0.60380667  0.00805973     0.11900
H516        H  0.73746910  0.64104614  0.01430122     0.13100
H517        H  0.80259536  0.70394717  0.01029922     0.12100
H518        H  0.71763553  0.78401739  0.97225268     0.09200
H519        H  0.78296642  0.84524016  0.97335969     0.12500
H520        H  0.84214794  0.77621613  0.99926991     0.14300
C521        C  0.37028916  0.00108749  0.98064775    -0.01200
C522        C  0.33382791  0.96380896  0.97994554    -0.09200
C523        C  0.29641663  0.96239430  0.97547653    -0.18000
C524        C  0.29433479  0.99857420  0.97201106     0.04400
C525        C  0.33168330  0.03632834  0.97228500     0.18500
C526        C  0.36910072  0.03721011  0.97630811    -0.19500
C527        C  0.33145552  0.07305172  0.96931904    -0.20700
C528        C  0.29491164  0.07329467  0.96732563    -0.19300
C529        C  0.25759627  0.03680550  0.96797340     0.19900
C530        C  0.25666824  0.99883018  0.96950174     0.02000
C531        C  0.21803496  0.96294257  0.96955344    -0.14000
C532        C  0.18206741  0.96484049  0.97057328    -0.11700
C533        C  0.18319257  0.00242110  0.97093841     0.01600
C534        C  0.22118206  0.03823562  0.96840638    -0.23900
H535        H  0.33437818  0.93562475  0.98300772     0.09600
H536        H  0.26966971  0.93257629  0.97544728     0.13200
H537        H  0.39742894  0.06607132  0.97671018     0.11900
H538        H  0.35977090  0.10189284  0.96931474     0.13100
H539        H  0.29584727  0.10233518  0.96593122     0.12100
H540        H  0.21458380  0.93293702  0.96970725     0.09200
H541        H  0.15320805  0.93664480  0.97201257     0.12500
H542        H  0.22261150  0.06754779  0.96859020     0.14300
C543        C  0.62784878  0.99872547  0.01415071    -0.01200
C544        C  0.62638574  0.96163995  0.02104180    -0.09200
C545        C  0.66221889  0.96007161  0.02596851    -0.18000
C546        C  0.70089572  0.99579143  0.02355378     0.04400
C547        C  0.70203400  0.03328104  0.01592572     0.18500
C548        C  0.66569678  0.03446650  0.01182244    -0.19500
C549        C  0.73942421  0.06927034  0.01180535    -0.20700
C550        C  0.77583743  0.06880204  0.01427224    -0.19300
C551        C  0.77584676  0.03246555  0.02170172     0.19900
C552        C  0.73843882  0.99557919  0.02737609     0.02000
C553        C  0.74032878  0.96007837  0.03618910    -0.14000
C554        C  0.77754483  0.96074271  0.03708478    -0.11700
C555        C  0.81423149  0.99669556  0.02932700     0.01600
C556        C  0.81309961  0.03268645  0.02260628    -0.23900
H557        H  0.59726284  0.93374130  0.02263818     0.09600
H558        H  0.65863131  0.93037175  0.03091241     0.13200
H559        H  0.66672295  0.06313617  0.00616428     0.11900
H560        H  0.74050552  0.09791063  0.00592986     0.13100
H561        H  0.80422855  0.09707705  0.01013072     0.12100
H562        H  0.71354520  0.93118693  0.04212783     0.09200
H563        H  0.77734432  0.93249886  0.04267286     0.12500
H564        H  0.84119833  0.06082825  0.01688411     0.14300
C565        C  0.99622604  0.36628213  0.51240794    -0.01200
C566        C  0.03354272  0.36717858  0.51434220    -0.09200
C567        C  0.03495337  0.33116027  0.51819050    -0.18000
C568        C  0.99874577  0.29287630  0.52045829     0.04400
C569        C  0.96095231  0.29244333  0.51976639     0.18500
C570        C  0.96004137  0.32892008  0.51552379    -0.19500
C571        C  0.92425748  0.25557226  0.52293070    -0.20700
C572        C  0.92411283  0.21889843  0.52592163    -0.19300
C573        C  0.96064173  0.21807180  0.52536948     0.19900
C574        C  0.99855304  0.25502569  0.52283243     0.02000
C575        C  0.03445445  0.25229034  0.52166434    -0.14000
C576        C  0.03262538  0.21450812  0.52154107    -0.11700
C577        C  0.99512786  0.17811871  0.52311734     0.01600
C578        C  0.95931119  0.18029548  0.52602304    -0.23900
H579        H  0.06176589  0.39597989  0.51247620     0.09600
H580        H  0.06481868  0.33431822  0.51927538     0.13200
H581        H  0.93115304  0.32836800  0.51449822     0.11900
H582        H  0.89538841  0.25505138  0.52275053     0.13100
H583        H  0.89511736  0.19086603  0.52789551     0.12100
H584        H  0.06439101  0.27872868  0.51972168     0.09200
H585        H  0.06081252  0.21383709  0.51927947     0.12500
H586        H  0.93006427  0.15242683  0.52693137     0.14300
C587        C  0.00486083  0.81643704  0.46901158    -0.01200
C588        C  0.03826009  0.81461518  0.45356455    -0.09200
C589        C  0.03925272  0.77815988  0.45380830    -0.18000
C590        C  0.00688274  0.74214115  0.47010402     0.04400
C591        C  0.97250970  0.74384052  0.48453692     0.18500
C592        C  0.97164321  0.78049873  0.48350166    -0.19500
C593        C  0.93957838  0.70922647  0.50101906    -0.20700
C594        C  0.94028878  0.67303365  0.50428202    -0.19300
C595        C  0.97386890  0.67042766  0.49100558     0.19900
C596        C  0.00757485  0.70476424  0.47333703     0.02000
C597        C  0.04056782  0.70016733  0.46019378    -0.14000
C598        C  0.03999351  0.66314463  0.46452843    -0.11700
C599        C  0.00681745  0.62977256  0.48223034     0.01600
C600        C  0.97391072  0.63357271  0.49542079    -0.23900
H601        H  0.06429954  0.84176660  0.44203540     0.09600
H602        H  0.06618398  0.77939993  0.44182328     0.13200
H603        H  0.94557277  0.78131927  0.49561802     0.11900
H604        H  0.91325628  0.71029933  0.51199315     0.13100
H605        H  0.91445709  0.64693039  0.51757457     0.12100
H606        H  0.06719444  0.72455223  0.44643429     0.09200
H607        H  0.06558095  0.66047993  0.45405258     0.12500
H608        H  0.94813098  0.60753364  0.50890778     0.14300
C609        C  0.00409019  0.51536200  0.85116912    -0.01200
C610        C  0.97266676  0.51742916  0.83155436    -0.09200
C611        C  0.97179458  0.51862870  0.79031249    -0.18000
C612        C  0.00249692  0.51759764  0.76732517     0.04400
C613        C  0.03496899  0.51676086  0.78765574     0.18500
C614        C  0.03551497  0.51578411  0.82909840    -0.19500
C615        C  0.06636180  0.51611648  0.76653364    -0.20700
C616        C  0.06580478  0.51522327  0.72553714    -0.19300
C617        C  0.03383082  0.51493250  0.70457404     0.19900
C618        C  0.00188539  0.51660888  0.72504365     0.02000
C619        C  0.97044976  0.51644024  0.70221720    -0.14000
C620        C  0.97042510  0.51387434  0.66101845    -0.11700
C621        C  0.00151893  0.51135470  0.64131467     0.01600
C622        C  0.03334130  0.51233452  0.66317353    -0.23900
H623        H  0.94828347  0.51737964  0.84828838     0.09600
H624        H  0.94643805  0.51980276  0.77731902     0.13200
H625        H  0.06002506  0.51450560  0.84437200     0.11900
H626        H  0.09129640  0.51574040  0.78186091     0.13100
H627        H  0.09033687  0.51420800  0.71010406     0.12100
H628        H  0.94526051  0.51782223  0.71531425     0.09200
H629        H  0.94567376  0.51324381  0.64439901     0.12500
H630        H  0.05750584  0.51055472  0.64778622     0.14300
C631        C  0.00569767  0.49155141  0.14132484    -0.01200
C632        C  0.97519719  0.45692309  0.16022866    -0.09200
C633        C  0.97410327  0.45390741  0.20140152    -0.18000
C634        C  0.00362899  0.48579721  0.22516630     0.04400
C635        C  0.03473682  0.52077465  0.20567140     0.18500
C636        C  0.03561123  0.52320772  0.16422772    -0.19500
C637        C  0.06452854  0.55338108  0.22764552    -0.20700
C638        C  0.06394642  0.55231794  0.26865591    -0.19300
C639        C  0.03363490  0.51856607  0.28880619     0.19900
C640        C  0.00316406  0.48460213  0.26745964     0.02000
C641        C  0.97338247  0.45125420  0.28948641    -0.14000
C642        C  0.97323647  0.45222458  0.33078707    -0.11700
C643        C  0.00278887  0.48616245  0.35150364     0.01600
C644        C  0.03329862  0.51891418  0.33029281    -0.23900
H645        H  0.95175812  0.43224986  0.14295952     0.09600
H646        H  0.94951197  0.42643362  0.21373195     0.13200
H647        H  0.05928280  0.55006526  0.14961632     0.11900
H648        H  0.08829441  0.58010588  0.21299526     0.13100
H649        H  0.08725686  0.57826423  0.28475805     0.12100
H650        H  0.94950484  0.42419214  0.27568145     0.09200
H651        H  0.94944256  0.42663086  0.34669298     0.12500
H652        H  0.05635149  0.54516817  0.34629523     0.14300
C653        C  0.99360280  0.18077361  0.97326874    -0.01200
C654        C  0.95694665  0.18145690  0.97469434    -0.09200
C655        C  0.95672422  0.21818244  0.97406564    -0.18000
C656        C  0.99341618  0.25589470  0.97183762     0.04400
C657        C  0.03034526  0.25506151  0.96744034     0.18500
C658        C  0.03019222  0.21776007  0.96853440    -0.19500
C659        C  0.06728290  0.29155160  0.96304793    -0.20700
C660        C  0.06853807  0.32892681  0.96428864    -0.19300
C661        C  0.03301353  0.33085438  0.97073473     0.19900
C662        C  0.99485597  0.29432802  0.97450661     0.02000
C663        C  0.96001458  0.29792563  0.98208663    -0.14000
C664        C  0.96302738  0.33606072  0.98594810    -0.11700
C665        C  0.00057206  0.37177953  0.98210901     0.01600
C666        C  0.03546128  0.36910531  0.97415452    -0.23900
H667        H  0.92814033  0.15344307  0.97788213     0.09600
H668        H  0.92730394  0.21599467  0.97583898     0.13200
H669        H  0.05870518  0.21763636  0.96665170     0.11900
H670        H  0.09550814  0.29121745  0.95910961     0.13100
H671        H  0.09768972  0.35658675  0.96115228     0.12100
H672        H  0.93009435  0.27187760  0.98594181     0.09200
H673        H  0.93583255  0.33775931  0.99200781     0.12500
H674        H  0.06456023  0.39688624  0.97117513     0.14300
C675        C  0.00611357  0.63355814  0.01069058    -0.01200
C676        C  0.03902152  0.66666055  0.02919788    -0.09200
C677        C  0.03955889  0.70358491  0.03403611    -0.18000
C678        C  0.00681282  0.70839996  0.02055418     0.04400
C679        C  0.97337438  0.67439052  0.00199853     0.18500
C680        C  0.97344870  0.63759011  0.99708572    -0.19500
C681        C  0.93999992  0.67724385  0.98844997    -0.20700
C682        C  0.93916890  0.71331775  0.99249955    -0.19300
C683        C  0.97184479  0.74757879  0.00991873     0.19900
C684        C  0.00610597  0.74568443  0.02440632     0.02000
C685        C  0.03840196  0.78144209  0.04135918    -0.14000
C686        C  0.03743136  0.81785208  0.04222377    -0.11700
C687        C  0.00408541  0.81979363  0.02687198     0.01600
C688        C  0.97091218  0.78413782  0.01176545    -0.23900
H689        H  0.06442359  0.66382713  0.03998457     0.09600
H690        H  0.06593652  0.72767305  0.04853207     0.13200
H691        H  0.94788053  0.61177623  0.98294908     0.11900
H692        H  0.91438463  0.65140330  0.97444680     0.13100
H693        H  0.91297968  0.71459080  0.98140214     0.12100
H694        H  0.06531184  0.78257751  0.05330025     0.09200
H695        H  0.06342304  0.84488259  0.05415838     0.12500
H696        H  0.94498142  0.78520579  0.99957402     0.14300
loop_ 
_geom_bond_atom_site_label_1 
_geom_bond_atom_site_label_2 
_geom_bond_distance 
_geom_bond_site_symmetry_2 
_ccdc_geom_bond_type 
N1            C6   1.355       .  A
N1            C5   1.355       .  A
N1           H33   1.037   1_455  S
N2            C9   1.354   1_455  A
N2           C10   1.353   1_455  A
N3            C8   1.354       .  A
N3            C7   1.355       .  A
N3           H34   1.038   1_455  S
N4           C11   1.353       .  A
N4           C12   1.353   1_455  A
C5           C13   1.387       .  A
C5           C21   1.418   1_554  A
C6           C22   1.420       .  A
C6           C14   1.387       .  A
C7           C15   1.387       .  A
C7           C24   1.418       .  A
C8           C23   1.417   1_556  A
C8           C16   1.387       .  A
C9           C21   1.415   1_655  A
C9           C17   1.386       .  A
C10          C24   1.417   1_655  A
C10          C18   1.387       .  A
C11          C19   1.387   1_455  A
C11          C22   1.417       .  A
C12          C20   1.386       .  A
C12          C23   1.415   1_655  A
C13          C14   1.377       .  A
C13          H25   1.082       .  S
C14          H26   1.082       .  S
C15          C16   1.376       .  A
C15          H27   1.082       .  S
C16          H28   1.082       .  S
C17          C18   1.372       .  A
C17          H29   1.082       .  S
C18          H30   1.082       .  S
C19          C20   1.371       .  A
C19          H31   1.082       .  S
C20          H32   1.082       .  S
C21         C665   1.489       .  S
C22         C631   1.494       .  S
C23         C675   1.488       .  S
C24         C609   1.491       .  S
N35          C40   1.355   1_655  A
N35          C39   1.356   1_655  A
N35          H67   1.038       .  S
N36          C43   1.353   1_455  A
N36          C44   1.353   1_455  A
N37          C42   1.354       .  A
N37          C41   1.353       .  A
N37          H68   1.039   1_455  S
N38          C45   1.352       .  A
N38          C46   1.353       .  A
C39          C47   1.386       .  A
C39          C55   1.420       .  A
C40          C56   1.420   1_455  A
C40          C48   1.388       .  A
C41          C49   1.387       .  A
C41          C58   1.415       .  A
C42          C57   1.416       .  A
C42          C50   1.387       .  A
C43          C55   1.416   1_655  A
C43          C51   1.387       .  A
C44          C58   1.413   1_655  A
C44          C52   1.385       .  A
C45          C53   1.387       .  A
C45          C56   1.415       .  A
C46          C54   1.386       .  A
C46          C57   1.415   1_655  A
C47          C48   1.377       .  A
C47          H59   1.082       .  S
C48          H60   1.082       .  S
C49          C50   1.377       .  A
C49          H61   1.082       .  S
C50          H62   1.082       .  S
C51          C52   1.372       .  A
C51          H63   1.082       .  S
C52          H64   1.082       .  S
C53          C54   1.373       .  A
C53          H65   1.082       .  S
C54          H66   1.082       .  S
C55         C643   1.495       .  S
C56         C565   1.489       .  S
C57         C621   1.489       .  S
C58         C599   1.487       .  S
O69         Mg71   2.155   1_655  S
O69         Mg77   2.155   1_554  S
O69         C104   1.236       .  S
C70         H109   1.081       .  S
C70          O83   1.235       .  S
C70         O107   1.269       .  A
Mg71        O100   2.157   1_554  S
Mg71        O115   2.333   1_554  S
Mg71        O111   2.284       .  S
Mg71         O82   2.303       .  S
O72        Mg114   2.155   1_554  S
O72         Mg97   2.152       .  S
O72          C93   1.236       .  S
O73         C104   1.271       .  A
O73         Mg97   2.300   1_545  S
C74         C533   1.489       .  S
C74          O76   1.273       .  A
C74          O88   1.276   1_545  A
O75         C103   1.270   1_655  A
O75         Mg77   2.297       .  S
O76        Mg108   2.275       .  S
Mg77         O83   2.147   1_545  S
Mg77         O91   2.261       .  S
Mg77         O79   2.316   1_556  S
C78         C687   1.483       .  S
C78         O116   1.272       .  A
C78          O84   1.275   1_455  A
O79          C86   1.277   1_545  A
H80          C93   1.081       .  S
C81         H106   1.081       .  S
C81          O95   1.236       .  S
C81          O96   1.270       .  A
O82         C105   1.271       .  A
O83         Mg97   2.153   1_556  S
O84        Mg114   2.299   1_554  S
C85         C511   1.482       .  S
C85          O98   1.272       .  A
C85          O90   1.276       .  A
C86         C555   1.488       .  S
C86         O113   1.273       .  A
Mg87         O94   2.148   1_565  S
Mg87         O95   2.158   1_554  S
Mg87         O88   2.318   1_554  S
Mg87         O89   2.301       .  S
Mg87        O116   2.263       .  S
O89          C93   1.270   1_455  A
O90         Mg97   2.313   1_556  S
O91         C110   1.274       .  A
O92         C112   1.275       .  A
O92        Mg108   2.296   1_554  S
O94        Mg108   2.153   1_554  S
O94         C105   1.237       .  S
O95        Mg114   2.147   1_455  S
O96        Mg108   2.300   1_565  S
Mg97        O113   2.266       .  S
O98        Mg114   2.265       .  S
H99         C104   1.081       .  S
O100       Mg108   2.149       .  S
O100        C103   1.235       .  S
H101        C103   1.081       .  S
H102        C105   1.081       .  S
O107       Mg114   2.298       .  S
C110        C653   1.487       .  S
C110        O115   1.279   1_655  A
O111        C112   1.275       .  A
C112        C477   1.487       .  S
O117       Mg119   2.154   1_455  S
O117       Mg125   2.163       .  S
O117        C152   1.236       .  S
C118        H157   1.081       .  S
C118        O131   1.236       .  S
C118        O155   1.270       .  A
Mg119       O148   2.155       .  S
Mg119       O163   2.308       .  S
Mg119       O159   2.274       .  S
Mg119       O130   2.300       .  S
O120       Mg162   2.147       .  S
O120       Mg145   2.139       .  S
O120        C141   1.235       .  S
O121        C152   1.270       .  A
O121       Mg145   2.301   1_565  S
C122        C455   1.485       .  S
C122        O124   1.273       .  A
C122        O136   1.275   1_565  A
O123        C151   1.270       .  A
O123       Mg125   2.300   1_655  S
O124       Mg156   2.266       .  S
Mg125       O131   2.157   1_565  S
Mg125       O139   2.278       .  S
Mg125       O127   2.308       .  S
C126        C577   1.486       .  S
C126        O164   1.273       .  A
C126        O132   1.275   1_655  A
O127        C134   1.276   1_565  A
H128        C141   1.081       .  S
C129        H154   1.081       .  S
C129        O143   1.236       .  S
C129        O144   1.270   1_545  A
O130        C153   1.270       .  A
O131       Mg145   2.160       .  S
O132       Mg162   2.303       .  S
C133        C389   1.490       .  S
C133        O146   1.273       .  A
C133        O138   1.277       .  A
C134        C433   1.482       .  S
C134        O161   1.272       .  A
Mg135       O142   2.154   1_545  S
Mg135       O143   2.158       .  S
Mg135       O136   2.304       .  S
Mg135       O137   2.298   1_655  S
Mg135       O164   2.274       .  S
O137        C141   1.270       .  A
O138       Mg145   2.325       .  S
O139        C158   1.274       .  A
O140        C160   1.276       .  A
O140       Mg156   2.309       .  S
O142       Mg156   2.155       .  S
O142        C153   1.235       .  S
O143       Mg162   2.148   1_655  S
O144       Mg156   2.298       .  S
Mg145       O161   2.253       .  S
O146       Mg162   2.266       .  S
H147        C152   1.081       .  S
O148       Mg156   2.150       .  S
O148        C151   1.235       .  S
H149        C151   1.081       .  S
H150        C153   1.081       .  S
O155       Mg162   2.302       .  S
C158        C587   1.489       .  S
C158        O163   1.276   1_455  A
O159        C160   1.274       .  A
C160        C423   1.488       .  S
N165        C170   1.355       .  A
N165        C169   1.355   1_545  A
N165        H197   1.037       .  S
N166        C173   1.353   1_565  A
N166        C174   1.353   1_565  A
N167        C172   1.355   1_545  A
N167        C171   1.354   1_545  A
N167        H198   1.037       .  S
N168        C175   1.354       .  A
N168        C176   1.354       .  A
C169        C177   1.388       .  A
C169        C185   1.419   1_565  A
C170        C186   1.419       .  A
C170        C178   1.387   1_545  A
C171        C179   1.387       .  A
C171        C188   1.418       .  A
C172        C187   1.419   1_565  A
C172        C180   1.388       .  A
C173        C185   1.417   1_556  A
C173        C181   1.387       .  A
C174        C188   1.416   1_545  A
C174        C182   1.386       .  A
C175        C183   1.386       .  A
C175        C186   1.418       .  A
C176        C184   1.387       .  A
C176        C187   1.418   1_554  A
C177        C178   1.374       .  A
C177        H189   1.082       .  S
C178        H190   1.082       .  S
C179        C180   1.375       .  A
C179        H191   1.082       .  S
C180        H192   1.082       .  S
C181        C182   1.373       .  A
C181        H193   1.082       .  S
C182        H194   1.082       .  S
C183        C184   1.375       .  A
C183        H195   1.082       .  S
C184        H196   1.082       .  S
C185        C543   1.488   1_545  S
C186        C367   1.492       .  S
C187        C521   1.490       .  S
C188        C345   1.490       .  S
N199        C204   1.354       .  A
N199        C203   1.356       .  A
N199        H231   1.037       .  S
N200        C207   1.353       .  A
N200        C208   1.352       .  A
N201        C206   1.354   1_545  A
N201        C205   1.353   1_545  A
N201        H232   1.037       .  S
N202        C209   1.352       .  A
N202        C210   1.354       .  A
C203        C211   1.387   1_545  A
C203        C219   1.418       .  A
C204        C220   1.417       .  A
C204        C212   1.388   1_545  A
C205        C213   1.388       .  A
C205        C222   1.416   1_565  A
C206        C221   1.416       .  A
C206        C214   1.387       .  A
C207        C219   1.415       .  A
C207        C215   1.386       .  A
C208        C222   1.415       .  A
C208        C216   1.387       .  A
C209        C217   1.387       .  A
C209        C220   1.416       .  A
C210        C218   1.385       .  A
C210        C221   1.415   1_545  A
C211        C212   1.374       .  A
C211        H223   1.082       .  S
C212        H224   1.082       .  S
C213        C214   1.375       .  A
C213        H225   1.082       .  S
C214        H226   1.082       .  S
C215        C216   1.372       .  A
C215        H227   1.082       .  S
C216        H228   1.082       .  S
C217        C218   1.372       .  A
C217        H229   1.082       .  S
C218        H230   1.082       .  S
C219        C379   1.492       .  S
C220        C467   1.484       .  S
C221        C357   1.490       .  S
C222        C445   1.482       .  S
N233        C238   1.353       .  A
N233        C237   1.354       .  A
N233        H265   1.038       .  S
N234        C241   1.352       .  A
N234        C242   1.351       .  A
N235        C240   1.354       .  A
N235        C239   1.354       .  A
N235        H266   1.038       .  S
N236        C243   1.353       .  A
N236        C244   1.353       .  A
C237        C245   1.387       .  A
C237        C253   1.415       .  A
C238        C254   1.414       .  A
C238        C246   1.387       .  A
C239        C247   1.386       .  A
C239        C256   1.415       .  A
C240        C255   1.419       .  A
C240        C248   1.388       .  A
C241        C253   1.413       .  A
C241        C249   1.386       .  A
C242        C256   1.412   1_554  A
C242        C250   1.386       .  A
C243        C251   1.385       .  A
C243        C254   1.415   1_556  A
C244        C252   1.387       .  A
C244        C255   1.418       .  A
C245        C246   1.374       .  A
C245        H257   1.082       .  S
C246        H258   1.082       .  S
C247        C248   1.375       .  A
C247        H259   1.082       .  S
C248        H260   1.082       .  S
C249        C250   1.372       .  A
C249        H261   1.082       .  S
C250        H262   1.082       .  S
C251        C252   1.375       .  A
C251        H263   1.082       .  S
C252        H264   1.082       .  S
C253        C323   1.488       .  S
C254        C489   1.486       .  S
C255        C301   1.492       .  S
C256        C499   1.484       .  S
N267        C272   1.354       .  A
N267        C271   1.355       .  A
N267        H299   1.037       .  S
N268        C275   1.353       .  A
N268        C276   1.352       .  A
N269        C274   1.355       .  A
N269        C273   1.354       .  A
N269        H300   1.037       .  S
N270        C277   1.352       .  A
N270        C278   1.353       .  A
C271        C279   1.387       .  A
C271        C287   1.417       .  A
C272        C288   1.418       .  A
C272        C280   1.387       .  A
C273        C281   1.387       .  A
C273        C290   1.418       .  A
C274        C289   1.417       .  A
C274        C282   1.387       .  A
C275        C287   1.414       .  A
C275        C283   1.386       .  A
C276        C290   1.417       .  A
C276        C284   1.387       .  A
C277        C285   1.386       .  A
C277        C288   1.415       .  A
C278        C286   1.386       .  A
C278        C289   1.415       .  A
C279        C280   1.377       .  A
C279        H291   1.082       .  S
C280        H292   1.082       .  S
C281        C282   1.376       .  A
C281        H293   1.082       .  S
C282        H294   1.082       .  S
C283        C284   1.371       .  A
C283        H295   1.082       .  S
C284        H296   1.082       .  S
C285        C286   1.372       .  A
C285        H297   1.082       .  S
C286        H298   1.082       .  S
C287        C401   1.489       .  S
C288        C313   1.490       .  S
C289        C411   1.488       .  S
C290        C335   1.490       .  S
C301        C302   1.399       .  A
C301        C306   1.401       .  A
C302        C303   1.397       .  A
C302        H315   1.084       .  S
C303        C304   1.416       .  A
C303        H316   1.077       .  S
C304        C310   1.432       .  A
C304        C305   1.423       .  A
C305        C307   1.399       .  A
C305        C306   1.407       .  A
C306        H317   1.085       .  S
C307        C308   1.391       .  A
C307        H318   1.084       .  S
C308        C309   1.399       .  A
C308        H319   1.084       .  S
C309        C310   1.424       .  A
C309        C314   1.407       .  A
C310        C311   1.416       .  A
C311        C312   1.397       .  A
C311        H320   1.077       .  S
C312        C313   1.399       .  A
C312        H321   1.084       .  S
C313        C314   1.400       .  A
C314        H322   1.085       .  S
C323        C324   1.399       .  A
C323        C328   1.399       .  A
C324        C325   1.398       .  A
C324        H337   1.083       .  S
C325        C326   1.417       .  A
C325        H338   1.077       .  S
C326        C332   1.431       .  A
C326        C327   1.423       .  A
C327        C329   1.399       .  A
C327        C328   1.403       .  A
C328        H339   1.085       .  S
C329        C330   1.389       .  A
C329        H340   1.084       .  S
C330        C331   1.399       .  A
C330        H341   1.084       .  S
C331        C332   1.423       .  A
C331        C336   1.404       .  A
C332        C333   1.416       .  A
C333        C334   1.397       .  A
C333        H342   1.077       .  S
C334        C335   1.399       .  A
C334        H343   1.083       .  S
C335        C336   1.400       .  A
C336        H344   1.085       .  S
C345        C346   1.399       .  A
C345        C350   1.399   1_565  A
C346        C347   1.400       .  A
C346        H359   1.083       .  S
C347        C348   1.417       .  A
C347        H360   1.077       .  S
C348        C354   1.434       .  A
C348        C349   1.424   1_565  A
C349        C351   1.399       .  A
C349        C350   1.406       .  A
C350        H361   1.085       .  S
C351        C352   1.390       .  A
C351        H362   1.084       .  S
C352        C353   1.399       .  A
C352        H363   1.084       .  S
C353        C354   1.424   1_545  A
C353        C358   1.406       .  A
C354        C355   1.417       .  A
C355        C356   1.400       .  A
C355        H364   1.077       .  S
C356        C357   1.399       .  A
C356        H365   1.083       .  S
C357        C358   1.399   1_565  A
C358        H366   1.085       .  S
C367        C368   1.399   1_545  A
C367        C372   1.401       .  A
C368        C369   1.399       .  A
C368        H381   1.083       .  S
C369        C370   1.417   1_565  A
C369        H382   1.077       .  S
C370        C376   1.433       .  A
C370        C371   1.423       .  A
C371        C373   1.400       .  A
C371        C372   1.407       .  A
C372        H383   1.085       .  S
C373        C374   1.391       .  A
C373        H384   1.084       .  S
C374        C375   1.400       .  A
C374        H385   1.084       .  S
C375        C376   1.424       .  A
C375        C380   1.408       .  A
C376        C377   1.416   1_545  A
C377        C378   1.398       .  A
C377        H386   1.077       .  S
C378        C379   1.399   1_565  A
C378        H387   1.083       .  S
C379        C380   1.400       .  A
C380        H388   1.085       .  S
C389        C390   1.404       .  A
C389        C394   1.404       .  A
C390        C391   1.398       .  A
C390        H403   1.083       .  S
C391        C392   1.414       .  A
C391        H404   1.077       .  S
C392        C398   1.434       .  A
C392        C393   1.423       .  A
C393        C395   1.400       .  A
C393        C394   1.408       .  A
C394        H405   1.084       .  S
C395        C396   1.391       .  A
C395        H406   1.084       .  S
C396        C397   1.399       .  A
C396        H407   1.084       .  S
C397        C398   1.423       .  A
C397        C402   1.407       .  A
C398        C399   1.417       .  A
C399        C400   1.399       .  A
C399        H408   1.077       .  S
C400        C401   1.398       .  A
C400        H409   1.083       .  S
C401        C402   1.399       .  A
C402        H410   1.085       .  S
C411        C412   1.397       .  A
C411        C416   1.400       .  A
C412        C413   1.397       .  A
C412        H425   1.083       .  S
C413        C414   1.416       .  A
C413        H426   1.077       .  S
C414        C420   1.432       .  A
C414        C415   1.424       .  A
C415        C417   1.400       .  A
C415        C416   1.407       .  A
C416        H427   1.085       .  S
C417        C418   1.391       .  A
C417        H428   1.084       .  S
C418        C419   1.400       .  A
C418        H429   1.084       .  S
C419        C420   1.422       .  A
C419        C424   1.407       .  A
C420        C421   1.415       .  A
C421        C422   1.397       .  A
C421        H430   1.077       .  S
C422        C423   1.402       .  A
C422        H431   1.083       .  S
C423        C424   1.405       .  A
C424        H432   1.084       .  S
C433        C434   1.402       .  A
C433        C438   1.403   1_545  A
C434        C435   1.395       .  A
C434        H447   1.083       .  S
C435        C436   1.414       .  A
C435        H448   1.077       .  S
C436        C442   1.429       .  A
C436        C437   1.422   1_545  A
C437        C439   1.400       .  A
C437        C438   1.405       .  A
C438        H449   1.084       .  S
C439        C440   1.390       .  A
C439        H450   1.084       .  S
C440        C441   1.399       .  A
C440        H451   1.084       .  S
C441        C442   1.423   1_565  A
C441        C446   1.404       .  A
C442        C443   1.416       .  A
C443        C444   1.396       .  A
C443        H452   1.077       .  S
C444        C445   1.396       .  A
C444        H453   1.083       .  S
C445        C446   1.398   1_545  A
C446        H454   1.085       .  S
C455        C456   1.402       .  A
C455        C460   1.404   1_565  A
C456        C457   1.396       .  A
C456        H469   1.083       .  S
C457        C458   1.415       .  A
C457        H470   1.077       .  S
C458        C464   1.430       .  A
C458        C459   1.422   1_565  A
C459        C461   1.400       .  A
C459        C460   1.406       .  A
C460        H471   1.084       .  S
C461        C462   1.390       .  A
C461        H472   1.084       .  S
C462        C463   1.399       .  A
C462        H473   1.084       .  S
C463        C464   1.424   1_545  A
C463        C468   1.405       .  A
C464        C465   1.416       .  A
C465        C466   1.396       .  A
C465        H474   1.077       .  S
C466        C467   1.396   1_565  A
C466        H475   1.083       .  S
C467        C468   1.398       .  A
C468        H476   1.085       .  S
C477        C478   1.403       .  A
C477        C482   1.404       .  A
C478        C479   1.396       .  A
C478        H491   1.083       .  S
C479        C480   1.413       .  A
C479        H492   1.077       .  S
C480        C486   1.432       .  A
C480        C481   1.423       .  A
C481        C483   1.400       .  A
C481        C482   1.408       .  A
C482        H493   1.084       .  S
C483        C484   1.391       .  A
C483        H494   1.084       .  S
C484        C485   1.400       .  A
C484        H495   1.084       .  S
C485        C486   1.423       .  A
C485        C490   1.407       .  A
C486        C487   1.417       .  A
C487        C488   1.397   1_554  A
C487        H496   1.077   1_554  S
C488        C489   1.397   1_556  A
C488        H497   1.083       .  S
C489        C490   1.399       .  A
C490        H498   1.085       .  S
C499        C500   1.397       .  A
C499        C504   1.398       .  A
C500        C501   1.398       .  A
C500        H513   1.083       .  S
C501        C502   1.416       .  A
C501        H514   1.078       .  S
C502        C508   1.431       .  A
C502        C503   1.424       .  A
C503        C505   1.399   1_556  A
C503        C504   1.404       .  A
C504        H515   1.085   1_556  S
C505        C506   1.389       .  A
C505        H516   1.084       .  S
C506        C507   1.400   1_554  A
C506        H517   1.084       .  S
C507        C508   1.422       .  A
C507        C512   1.404       .  A
C508        C509   1.416       .  A
C509        C510   1.399       .  A
C509        H518   1.078       .  S
C510        C511   1.401       .  A
C510        H519   1.083       .  S
C511        C512   1.402       .  A
C512        H520   1.085       .  S
C521        C522   1.399   1_545  A
C521        C526   1.399       .  A
C522        C523   1.399       .  A
C522        H535   1.083       .  S
C523        C524   1.417       .  A
C523        H536   1.077       .  S
C524        C530   1.434       .  A
C524        C525   1.424   1_565  A
C525        C527   1.399       .  A
C525        C526   1.407       .  A
C526        H537   1.085       .  S
C527        C528   1.390       .  A
C527        H538   1.084       .  S
C528        C529   1.400       .  A
C528        H539   1.084       .  S
C529        C530   1.422   1_545  A
C529        C534   1.407       .  A
C530        C531   1.416       .  A
C531        C532   1.400       .  A
C531        H540   1.077       .  S
C532        C533   1.403   1_565  A
C532        H541   1.083       .  S
C533        C534   1.404       .  A
C534        H542   1.084       .  S
C543        C544   1.398       .  A
C543        C548   1.399   1_565  A
C544        C545   1.398       .  A
C544        H557   1.083       .  S
C545        C546   1.417       .  A
C545        H558   1.077       .  S
C546        C552   1.432       .  A
C546        C547   1.423   1_565  A
C547        C549   1.399       .  A
C547        C548   1.406       .  A
C548        H559   1.085       .  S
C549        C550   1.391       .  A
C549        H560   1.084       .  S
C550        C551   1.400       .  A
C550        H561   1.084       .  S
C551        C552   1.422   1_545  A
C551        C556   1.407       .  A
C552        C553   1.414       .  A
C553        C554   1.398       .  A
C553        H562   1.077       .  S
C554        C555   1.403       .  A
C554        H563   1.083       .  S
C555        C556   1.404   1_565  A
C556        H564   1.084       .  S
C565        C566   1.398   1_655  A
C565        C570   1.399       .  A
C566        C567   1.398       .  A
C566        H579   1.083       .  S
C567        C568   1.416   1_455  A
C567        H580   1.077       .  S
C568        C574   1.433       .  A
C568        C569   1.424       .  A
C569        C571   1.399       .  A
C569        C570   1.407       .  A
C570        H581   1.085       .  S
C571        C572   1.390       .  A
C571        H582   1.084       .  S
C572        C573   1.400       .  A
C572        H583   1.084       .  S
C573        C574   1.423       .  A
C573        C578   1.407       .  A
C574        C575   1.415   1_655  A
C575        C576   1.398       .  A
C575        H584   1.077       .  S
C576        C577   1.403   1_455  A
C576        H585   1.083       .  S
C577        C578   1.403       .  A
C578        H586   1.084       .  S
C587        C588   1.403       .  A
C587        C592   1.404   1_455  A
C588        C589   1.400       .  A
C588        H601   1.083       .  S
C589        C590   1.416       .  A
C589        H602   1.077       .  S
C590        C596   1.433       .  A
C590        C591   1.422   1_455  A
C591        C593   1.400       .  A
C591        C592   1.406       .  A
C592        H603   1.084       .  S
C593        C594   1.389       .  A
C593        H604   1.084       .  S
C594        C595   1.399       .  A
C594        H605   1.084       .  S
C595        C596   1.424   1_655  A
C595        C600   1.405       .  A
C596        C597   1.417       .  A
C597        C598   1.400       .  A
C597        H606   1.077       .  S
C598        C599   1.399       .  A
C598        H607   1.083       .  S
C599        C600   1.398   1_455  A
C600        H608   1.085       .  S
C609        C610   1.399   1_455  A
C609        C614   1.400       .  A
C610        C611   1.399       .  A
C610        H623   1.083       .  S
C611        C612   1.417   1_655  A
C611        H624   1.077       .  S
C612        C618   1.433       .  A
C612        C613   1.424       .  A
C613        C615   1.399       .  A
C613        C614   1.405       .  A
C614        H625   1.085       .  S
C615        C616   1.390       .  A
C615        H626   1.084       .  S
C616        C617   1.399       .  A
C616        H627   1.084       .  S
C617        C618   1.424       .  A
C617        C622   1.406       .  A
C618        C619   1.417   1_455  A
C619        C620   1.399       .  A
C619        H628   1.077       .  S
C620        C621   1.398   1_655  A
C620        H629   1.083       .  S
C621        C622   1.399       .  A
C622        H630   1.085       .  S
C631        C632   1.399   1_455  A
C631        C636   1.401       .  A
C632        C633   1.399       .  A
C632        H645   1.083       .  S
C633        C634   1.416   1_655  A
C633        H646   1.077       .  S
C634        C640   1.434       .  A
C634        C635   1.424       .  A
C635        C637   1.399       .  A
C635        C636   1.407       .  A
C636        H647   1.085       .  S
C637        C638   1.390       .  A
C637        H648   1.084       .  S
C638        C639   1.400       .  A
C638        H649   1.084       .  S
C639        C640   1.423       .  A
C639        C644   1.406       .  A
C640        C641   1.417   1_455  A
C641        C642   1.400       .  A
C641        H650   1.077       .  S
C642        C643   1.399   1_655  A
C642        H651   1.083       .  S
C643        C644   1.402       .  A
C644        H652   1.085       .  S
C653        C654   1.402       .  A
C653        C658   1.405   1_655  A
C654        C655   1.396       .  A
C654        H667   1.083       .  S
C655        C656   1.413       .  A
C655        H668   1.077       .  S
C656        C662   1.432       .  A
C656        C657   1.423   1_655  A
C657        C659   1.401       .  A
C657        C658   1.411       .  A
C658        H669   1.084       .  S
C659        C660   1.393       .  A
C659        H670   1.084       .  S
C660        C661   1.401       .  A
C660        H671   1.084       .  S
C661        C662   1.423   1_455  A
C661        C666   1.410       .  A
C662        C663   1.416       .  A
C663        C664   1.397       .  A
C663        H672   1.077       .  S
C664        C665   1.397   1_655  A
C664        H673   1.083       .  S
C665        C666   1.401       .  A
C666        H674   1.084       .  S
C675        C676   1.399       .  A
C675        C680   1.398   1_454  A
C676        C677   1.398       .  A
C676        H689   1.083       .  S
C677        C678   1.416       .  A
C677        H690   1.077       .  S
C678        C684   1.432       .  A
C678        C679   1.424   1_455  A
C679        C681   1.399   1_554  A
C679        C680   1.405   1_554  A
C680        H691   1.085       .  S
C681        C682   1.389       .  A
C681        H692   1.084       .  S
C682        C683   1.399   1_556  A
C682        H693   1.084       .  S
C683        C684   1.422   1_655  A
C683        C688   1.404       .  A
C684        C685   1.416       .  A
C685        C686   1.398       .  A
C685        H694   1.077       .  S
C686        C687   1.401       .  A
C686        H695   1.083       .  S
C687        C688   1.403   1_455  A
C688        H696   1.085   1_554  S
