geometry optimzed in LAMMPS
_audit_creation_date              2020-12-01 
_audit_creation_method            'lammps2cif' 
_symmetry_space_group_name_H-M    'P1' 
_symmetry_Int_Tables_number       1 
_symmetry_cell_setting            triclinic 
loop_ 
_symmetry_equiv_pos_as_xyz 
  x,y,z 
_cell_length_a                    38.89476691 
_cell_length_b                    39.24207580658932 
_cell_length_c                    26.51583705358306 
_cell_angle_alpha                 89.70867477602877 
_cell_angle_beta                  89.6467295553534 
_cell_angle_gamma                 119.98900718079439 
loop_ 
_atom_site_label 
_atom_site_type_symbol 
_atom_site_fract_x 
_atom_site_fract_y 
_atom_site_fract_z 
_atom_site_charge 
O1          O  0.46040992  0.23041490  0.08610664    -0.71600
O2          O  0.45919890  0.23464302  0.44265786    -0.71800
O3          O  0.46362291  0.18650456  0.00949966    -0.71600
O4          O  0.45837608  0.28113339  0.51770858    -0.71600
O5          O  0.02467451  0.31469826  0.02142084    -0.71600
O6          O  0.02698110  0.22016072  0.51143098    -0.71600
O7          O  0.02365633  0.26870523  0.44339299    -0.71600
O8          O  0.02477295  0.26281616  0.08880227    -0.71700
V9          V  0.46267326  0.23460278  0.01407427     1.35200
V10         V  0.02310523  0.26597101  0.51601476     1.35200
C11         C  0.99213092  0.24459873  0.11318424     0.77700
C12         C  0.99121564  0.25074044  0.41936211     0.77700
C13         C  0.49601194  0.18743994  0.50761563     0.77600
C14         C  0.49038603  0.31406444  0.51929929     0.77600
O15         O  0.45772532  0.27508198  0.26191841    -0.71600
O16         O  0.45703353  0.17798067  0.26785641    -0.71800
O17         O  0.45799277  0.22917744  0.33728373    -0.71600
O18         O  0.45841178  0.22603541  0.19210436    -0.71600
O19         O  0.02277664  0.25519715  0.19438610    -0.71600
O20         O  0.02247648  0.26219581  0.33807769    -0.71600
O21         O  0.02170661  0.20890388  0.27279738    -0.71600
O22         O  0.02189561  0.30613348  0.26035189    -0.71700
V23         V  0.45900841  0.22745027  0.26476887     1.35200
V24         V  0.02092621  0.25731345  0.26639386     1.35200
C25         C  0.98962975  0.30678720  0.26093150     0.77700
C26         C  0.98918748  0.17647175  0.27288822     0.77700
C27         C  0.99047789  0.24736174  0.36332518     0.77600
C28         C  0.99098168  0.24124902  0.16949733     0.77600
C29         C  0.46249072  0.46645113  0.51053494     0.02500
C30         C  0.99890962  0.46639994  0.50538000     0.02500
C31         C  0.03497903  0.00290813  0.50433102     0.02500
C32         C  0.03496225  0.03919737  0.50188706     0.02500
C33         C  0.99778849  0.03920814  0.50594845     0.02500
C34         C  0.46139323  0.00268984  0.51807340     0.02500
C35         C  0.03715695  0.03642315  0.24127611     0.02500
C36         C  0.03843854  0.99984576  0.25087660     0.02500
C37         C  0.00295195  0.46159562  0.26135282     0.02500
C38         C  0.46607178  0.46071835  0.25261940     0.02500
C39         C  0.46353429  0.99606484  0.24935365     0.02500
C40         C  0.99898926  0.03356013  0.24867319     0.02500
O41         O  0.22959228  0.47083879  0.07510458    -0.71600
O42         O  0.23818943  0.47219821  0.43108475    -0.71800
O43         O  0.28109894  0.47030075  0.00960500    -0.71600
O44         O  0.18550912  0.47285543  0.49708831    -0.71600
O45         O  0.21801819  0.03656384  0.99830908    -0.71600
O46         O  0.31427083  0.03471560  0.50939509    -0.71600
O47         O  0.26947068  0.03528118  0.43051436    -0.71600
O48         O  0.26343758  0.03592090  0.07481072    -0.71700
V49         V  0.23363332  0.47224017  0.00292593     1.35200
V50         V  0.26525880  0.03404408  0.50287492     1.35200
C51         C  0.24717271  0.00395384  0.09976065     0.77700
C52         C  0.25411642  0.00336650  0.40604059     0.77700
C53         C  0.31415709  0.00281407  0.01525305     0.77600
C54         C  0.18507377  0.00481582  0.99714347     0.77600
O55         O  0.23927903  0.47156403  0.32519960    -0.71600
O56         O  0.23386751  0.47083079  0.18069709    -0.71800
O57         O  0.28453727  0.46921278  0.24867213    -0.71600
O58         O  0.18925551  0.47285246  0.25618228    -0.71600
O59         O  0.22263964  0.03745920  0.25500726    -0.71600
O60         O  0.31814022  0.03359040  0.25000704    -0.71600
O61         O  0.26828503  0.03566980  0.18006402    -0.71600
O62         O  0.27161595  0.03535950  0.32460919    -0.71700
V63         V  0.23750749  0.47237418  0.25278205     1.35200
V64         V  0.26963140  0.03428264  0.25235444     1.35200
C65         C  0.25498793  0.00338934  0.34963399     0.77700
C66         C  0.24957032  0.00384723  0.15575952     0.77700
C67         C  0.31718178  0.00092531  0.24885335     0.77600
C68         C  0.18957138  0.00600566  0.25543743     0.77600
O69         O  0.23578586  0.26584013  0.04154957    -0.71600
O70         O  0.23754367  0.26712085  0.39623742    -0.71800
O71         O  0.18757105  0.21773971  0.96970253    -0.71600
O72         O  0.28458892  0.31577855  0.46938690    -0.71600
O73         O  0.31774573  0.28490215  0.97169274    -0.71600
O74         O  0.22018029  0.18624981  0.46869084    -0.71600
O75         O  0.27128687  0.23673356  0.39728644    -0.71600
O76         O  0.26780864  0.23368604  0.04102427    -0.71700
V77         V  0.23688676  0.26606778  0.96914077     1.35200
V78         V  0.26845814  0.23597362  0.46949828     1.35200
C79         C  0.25157967  0.24932643  0.06591621     0.77700
C80         C  0.25521239  0.25239344  0.37199488     0.77700
C81         C  0.18717655  0.18538463  0.47054023     0.77600
C82         C  0.31755349  0.31699305  0.47318249     0.77600
O83         O  0.18992624  0.22001322  0.22288773    -0.71600
O84         O  0.28925269  0.31455515  0.21442502    -0.71800
O85         O  0.23721665  0.26601971  0.14686086    -0.71600
O86         O  0.24113494  0.26943788  0.29070486    -0.71600
O87         O  0.27216914  0.23635325  0.29102912    -0.71600
O88         O  0.26767114  0.23234764  0.14620776    -0.71600
O89         O  0.31984220  0.28108116  0.21392103    -0.71600
O90         O  0.22111607  0.18717716  0.22312892    -0.71700
V91         V  0.24006205  0.26694016  0.21866747     1.35200
V92         V  0.26957831  0.23486955  0.21850077     1.35200
C93         C  0.18875021  0.18719402  0.22501056     0.77700
C94         C  0.32152074  0.31390614  0.21299806     0.77700
C95         C  0.25196499  0.24898329  0.12191455     0.77600
C96         C  0.25648015  0.25291338  0.31564397     0.77600
C97         C  0.11214677  0.07940982  0.21910666    -0.12000
C98         C  0.07544487  0.07708501  0.22735158     0.05000
C99         C  0.07840184  0.11524827  0.22141631    -0.07300
C100        C  0.11502391  0.14998062  0.22848723    -0.08100
C101        C  0.15058195  0.14959084  0.22830378    -0.02600
C102        C  0.14877689  0.11321921  0.22268379     0.04200
N103        N  0.18377075  0.11048230  0.21590262     0.66700
H104        H  0.11357288  0.05438059  0.19984767     0.15600
H105        H  0.11627286  0.17832060  0.22653822     0.15300
N106        N  0.05054361  0.12084348  0.19267397     0.74400
O107        O  0.20008256  0.10522161  0.25374648    -0.39100
O108        O  0.19418549  0.10647728  0.17222058    -0.39000
O109        O  0.04873156  0.15189264  0.19799307    -0.39700
O110        O  0.03713277  0.10166587  0.15288120    -0.39800
C111        C  0.42933864  0.39828691  0.20290915    -0.12000
C112        C  0.42872327  0.42253133  0.24140182     0.05000
C113        C  0.39258693  0.40961014  0.26807730    -0.07300
C114        C  0.35831679  0.37659019  0.25278322    -0.08100
C115        C  0.35944735  0.35095177  0.21785295    -0.02600
C116        C  0.39632177  0.36072555  0.19448357     0.04200
N117        N  0.40208804  0.33317138  0.16531479     0.66700
H118        H  0.45687116  0.40708839  0.18285189     0.15600
H119        H  0.33116317  0.36808217  0.27392107     0.15300
N120        N  0.39115603  0.42346062  0.31684274     0.74400
O121        O  0.42837131  0.34585108  0.13106219    -0.39100
O122        O  0.38989414  0.29892519  0.18238196    -0.39000
O123        O  0.36472508  0.43230562  0.32613038    -0.39700
O124        O  0.40083558  0.40853271  0.35196189    -0.39800
C125        C  0.10254286  0.01778011  0.29341472    -0.12000
C126        C  0.07698962  0.00029828  0.25211275     0.05000
C127        C  0.09071988  0.48643816  0.21223011    -0.07300
C128        C  0.12835563  0.48995941  0.21399349    -0.08100
C129        C  0.15253197  0.00683015  0.25415610    -0.02600
C130        C  0.13955328  0.01963965  0.29538150     0.04200
N131        N  0.16220488  0.03080481  0.34074262     0.66700
H132        H  0.09345622  0.02960653  0.32415416     0.15600
H133        H  0.13829204  0.47848684  0.18366910     0.15300
N134        N  0.06794860  0.47064478  0.16711653     0.74400
O135        O  0.18542800  0.06676083  0.34922022    -0.39100
O136        O  0.17136899  0.50893435  0.36377236    -0.39000
O137        O  0.03135538  0.95916602  0.16374968    -0.39700
O138        O  0.08439604  0.46593427  0.12877723    -0.39800
C139        C  0.36306934  0.98262470  0.20772654    -0.12000
C140        C  0.35396455  0.99911909  0.24877286     0.05000
C141        C  0.37997327  0.51231501  0.28996878    -0.07300
C142        C  0.41393300  0.50878960  0.29039786    -0.08100
C143        C  0.42402806  0.99432368  0.24854121    -0.02600
C144        C  0.39831362  0.98092783  0.20649698     0.04200
N145        N  0.40646578  0.96418205  0.16335559     0.66700
H146        H  0.34318883  0.97200448  0.17584671     0.15600
H147        H  0.43225050  0.51719426  0.32335136     0.15300
N148        N  0.37043843  0.52772062  0.33313962     0.73800
O149        O  0.37892496  0.93300087  0.14468669    -0.39100
O150        O  0.44119095  0.97888595  0.14546179    -0.39000
O151        O  0.34877674  0.50464559  0.36775357    -0.39700
O152        O  0.38824330  0.56438509  0.34010432    -0.39800
C153        C  0.08903363  0.09143534  0.44558475    -0.12000
C154        C  0.07489046  0.07711830  0.49464430     0.05000
C155        C  0.10078147  0.09793390  0.03562736    -0.07300
C156        C  0.13689455  0.13313253  0.02637588    -0.08100
C157        C  0.14922684  0.14775530  0.47752239    -0.02600
C158        C  0.12551650  0.12658532  0.43689501     0.04200
N159        N  0.13862809  0.14077646  0.38675680     0.66700
H160        H  0.07199386  0.07467230  0.41424831     0.15600
H161        H  0.15545032  0.14961512  0.05767355     0.15300
N162        N  0.09110842  0.08461978  0.08707907     0.74400
O163        O  0.16260331  0.13272820  0.36500871    -0.39100
O164        O  0.13470671  0.16882136  0.37007817    -0.39000
O165        O  0.05678842  0.05789365  0.10026039    -0.39700
O166        O  0.11890273  0.09587067  0.11823348    -0.39800
C167        C  0.41394977  0.39464803  0.03253543    -0.12000
C168        C  0.42528308  0.42770010  0.50097337     0.05000
C169        C  0.40047362  0.42412399  0.46044165    -0.07300
C170        C  0.36456977  0.38854120  0.45288555    -0.08100
C171        C  0.35468437  0.35499323  0.48236919    -0.02600
C172        C  0.37993258  0.35832114  0.02219348     0.04200
N173        N  0.37030520  0.32494605  0.05349958     0.66700
H174        H  0.43186122  0.39704446  0.06481822     0.15600
H175        H  0.34514602  0.38661085  0.42259737     0.15300
N176        N  0.41125662  0.45714319  0.42777102     0.74400
O177        O  0.38382001  0.30263121  0.04225731    -0.39100
O178        O  0.34227808  0.31338505  0.08521790    -0.39000
O179        O  0.44511240  0.47476351  0.40682554    -0.39700
O180        O  0.38686827  0.46874456  0.41978016    -0.39800
C181        C  0.10030680  0.01772517  0.04136079    -0.12000
C182        C  0.07361487  0.00329309  0.50144014     0.05000
C183        C  0.08506005  0.49029179  0.45876930    -0.07300
C184        C  0.11930231  0.48658940  0.46024803    -0.08100
C185        C  0.14739691  0.00517335  0.99781182    -0.02600
C186        C  0.13845392  0.02316311  0.03720742     0.04200
N187        N  0.16796593  0.04781552  0.07232018     0.66700
H188        H  0.09167147  0.02500631  0.07632883     0.15600
H189        H  0.12539547  0.47181192  0.43023159     0.15300
N190        N  0.06401617  0.48355980  0.41249418     0.74400
O191        O  0.18748589  0.08442395  0.06405621    -0.39100
O192        O  0.16902794  0.03457703  0.11528233    -0.39000
O193        O  0.04348828  0.49956804  0.40337688    -0.39700
O194        O  0.07215538  0.46794828  0.37678583    -0.39800
C195        C  0.38510448  0.03604062  0.04355374    -0.12000
C196        C  0.35042774  0.00166609  0.02930381     0.05000
C197        C  0.35086329  0.46674071  0.53567609    -0.07300
C198        C  0.38663948  0.46734642  0.54186576    -0.08100
C199        C  0.42267449  0.00170156  0.53631700    -0.02600
C200        C  0.42059588  0.03522991  0.05163936     0.04200
N201        N  0.45024301  0.06422658  0.08335196     0.66700
H202        H  0.38424399  0.06283456  0.05005308     0.15600
H203        H  0.38409889  0.43993596  0.55255801     0.15300
N204        N  0.31492546  0.42964012  0.53778306     0.74400
O205        O  0.45135384  0.09631391  0.59159247    -0.39100
O206        O  0.47272551  0.05582918  0.10775995    -0.39000
O207        O  0.30349953  0.40867883  0.49881133    -0.39700
O208        O  0.30135396  0.41456661  0.08423349    -0.39800
C209        C  0.01117705  0.12927692  0.30487239    -0.12000
C210        C  0.98813235  0.13793279  0.27187705     0.05000
C211        C  0.46539583  0.11017107  0.23295185    -0.07300
C212        C  0.46990604  0.07731106  0.22609937    -0.08100
C213        C  0.99438646  0.06913668  0.25842403    -0.02600
C214        C  0.01263883  0.09410344  0.29968463     0.04200
N215        N  0.03373740  0.08431334  0.33523860     0.66700
H216        H  0.02761212  0.14950668  0.33479130     0.15600
H217        H  0.45508323  0.05836866  0.19479338     0.15300
N218        N  0.44072859  0.11636576  0.19869739     0.74400
O219        O  0.07099060  0.10209598  0.33215648    -0.39100
O220        O  0.01598629  0.05136450  0.35756892    -0.39000
O221        O  0.45607782  0.14553703  0.16891964    -0.39700
O222        O  0.40545119  0.08925410  0.19182453    -0.39800
C223        C  0.02246277  0.37769672  0.23885562    -0.12000
C224        C  0.98996755  0.34466686  0.26048196     0.05000
C225        C  0.46369354  0.35122888  0.28860175    -0.07300
C226        C  0.46954808  0.38951477  0.29312956    -0.08100
C227        C  0.00293472  0.42216119  0.27331441    -0.02600
C228        C  0.03395807  0.41404781  0.26066952     0.04200
N229        N  0.06316825  0.42086165  0.29813544     0.66700
H230        H  0.04547952  0.37376233  0.22129028     0.15600
H231        H  0.44731923  0.39285848  0.31272758     0.15300
N232        N  0.43212301  0.31950438  0.31611817     0.74400
O233        O  0.05055994  0.40249215  0.33954028    -0.39100
O234        O  0.09682585  0.42740488  0.28333358    -0.39000
O235        O  0.43968354  0.30715092  0.35620337    -0.39700
O236        O  0.39852324  0.29963054  0.29613022    -0.39800
C237        C  0.47161039  0.12065984  0.47312971    -0.12000
C238        C  0.49900238  0.15165364  0.50246045     0.05000
C239        C  0.02909428  0.14731952  0.02794390    -0.07300
C240        C  0.02599013  0.11055629  0.52909987    -0.08100
C241        C  0.99883430  0.07853323  0.50005760    -0.02600
C242        C  0.47245577  0.08535771  0.46938523     0.04200
N243        N  0.44587218  0.05722694  0.43466371     0.66700
H244        H  0.44983144  0.12415561  0.45181092     0.15600
H245        H  0.04410221  0.10700685  0.55637863     0.15300
N246        N  0.06054703  0.17897441  0.05466734     0.74400
O247        O  0.45824715  0.06126854  0.88923097    -0.39100
O248        O  0.40922732  0.04333783  0.44214315    -0.39000
O249        O  0.05529039  0.18475284  0.10007752    -0.39700
O250        O  0.09461161  0.19673485  0.52797983    -0.39800
C251        C  0.47523603  0.36034853  0.47580398    -0.12000
C252        C  0.49080925  0.35192908  0.51780283     0.05000
C253        C  0.01317224  0.38273503  0.05460393    -0.07300
C254        C  0.01508504  0.41923565  0.04864776    -0.08100
C255        C  0.99920788  0.42771526  0.50570503    -0.02600
C256        C  0.48040713  0.39797776  0.46768903     0.04200
N257        N  0.46611227  0.40435595  0.42159908     0.66700
H258        H  0.46069754  0.33794495  0.44740477     0.15600
H259        H  0.02752634  0.44076841  0.07791211     0.15300
N260        N  0.02958742  0.37557669  0.09839343     0.74400
O261        O  0.49121003  0.42508062  0.38841200    -0.39100
O262        O  0.43177691  0.37752586  0.90900038    -0.39000
O263        O  0.06485652  0.38779484  0.60100153    -0.39700
O264        O  0.00789240  0.36101547  0.13691353    -0.39800
O265        O  0.45954642  0.23003860  0.58660535    -0.71600
O266        O  0.46130143  0.23607126  0.94232861    -0.71800
O267        O  0.46265770  0.18588089  0.51021945    -0.71600
O268        O  0.46044298  0.28230422  0.01743762    -0.71600
O269        O  0.02304700  0.31404756  0.52073654    -0.71600
O270        O  0.02816171  0.22056169  0.01126277    -0.71600
O271        O  0.02567011  0.26981906  0.94361943    -0.71600
O272        O  0.02404285  0.26304196  0.58839953    -0.71700
V273        V  0.46114875  0.23369377  0.51450765     1.35200
V274        V  0.02451703  0.26648085  0.01631644     1.35200
C275        C  0.99165140  0.24488103  0.61322888     0.77700
C276        C  0.99335438  0.25199517  0.91927291     0.77700
C277        C  0.49682149  0.18774052  0.00704418     0.77600
C278        C  0.49256880  0.31509707  0.01953214     0.77600
O279        O  0.45852543  0.27603340  0.76237396    -0.71600
O280        O  0.45851216  0.17932598  0.76830875    -0.71800
O281        O  0.45993427  0.23071321  0.83764739    -0.71600
O282        O  0.45873746  0.22676845  0.69266386    -0.71600
O283        O  0.02322597  0.25632752  0.69380549    -0.71600
O284        O  0.02440917  0.26355540  0.83761150    -0.71600
O285        O  0.02298188  0.21016314  0.77170811    -0.71600
O286        O  0.02311597  0.30745519  0.76017525    -0.71700
V287        V  0.46017223  0.22861882  0.76523271     1.35200
V288        V  0.02216197  0.25859680  0.76583827     1.35200
C289        C  0.99085192  0.30811087  0.76131150     0.77700
C290        C  0.99045016  0.17773586  0.77199262     0.77700
C291        C  0.99257351  0.24874426  0.86322942     0.77600
C292        C  0.99114437  0.24215983  0.66948478     0.77600
C293        C  0.46247963  0.46654388  0.01085660     0.02500
C294        C  0.99921628  0.46676332  0.00632006     0.02500
C295        C  0.03530566  0.00306393  0.00406872     0.02500
C296        C  0.03536962  0.03935951  0.00169753     0.02500
C297        C  0.99829451  0.03948407  0.00565569     0.02500
C298        C  0.46179532  0.00280255  0.01803039     0.02500
C299        C  0.03691001  0.03680182  0.74034227     0.02500
C300        C  0.03826191  0.00028040  0.74993344     0.02500
C301        C  0.00291135  0.46247390  0.76048118     0.02500
C302        C  0.46549645  0.46119310  0.75192780     0.02500
C303        C  0.46353020  0.99660413  0.74828163     0.02500
C304        C  0.99872886  0.03393748  0.74750686     0.02500
O305        O  0.23034590  0.47268877  0.57518878    -0.71600
O306        O  0.23693417  0.47114498  0.93070427    -0.71800
O307        O  0.28211537  0.47207260  0.51039516    -0.71600
O308        O  0.18458634  0.47167681  0.99743757    -0.71600
O309        O  0.21735123  0.03578211  0.49847002    -0.71600
O310        O  0.31476571  0.03512449  0.00933525    -0.71600
O311        O  0.27002125  0.03583697  0.93042085    -0.71600
O312        O  0.26284765  0.03531800  0.57482755    -0.71700
V313        V  0.23464466  0.47374044  0.50315842     1.35200
V314        V  0.26583866  0.03464029  0.00280641     1.35200
C315        C  0.24658909  0.00337328  0.59979720     0.77700
C316        C  0.25445051  0.00389262  0.90598921     0.77700
C317        C  0.31374929  0.00245987  0.51540724     0.77600
C318        C  0.18444880  0.00398926  0.49737963     0.77600
O319        O  0.23800340  0.47154073  0.82462540    -0.71600
O320        O  0.23402495  0.47238680  0.68019784    -0.71800
O321        O  0.28388756  0.46983010  0.74854565    -0.71600
O322        O  0.18883170  0.47390802  0.75510662    -0.71600
O323        O  0.22250697  0.03765367  0.75507956    -0.71600
O324        O  0.31779200  0.03343906  0.74944996    -0.71600
O325        O  0.26768797  0.03533884  0.67988427    -0.71600
O326        O  0.27175128  0.03565195  0.82438093    -0.71700
V327        V  0.23695796  0.47318450  0.75223629     1.35200
V328        V  0.26938225  0.03427661  0.75214377     1.35200
C329        C  0.25507274  0.00377491  0.84959651     0.77700
C330        C  0.24897259  0.00341617  0.65578278     0.77700
C331        C  0.31676427  0.00074174  0.74854934     0.77600
C332        C  0.18936781  0.00628707  0.75556654     0.77600
O333        O  0.23535773  0.26592160  0.54121185    -0.71600
O334        O  0.23717479  0.26735100  0.89663107    -0.71800
O335        O  0.18743544  0.21772135  0.46912186    -0.71600
O336        O  0.28461247  0.31591270  0.96963812    -0.71600
O337        O  0.31762941  0.28469147  0.47212272    -0.71600
O338        O  0.22045534  0.18640999  0.96843373    -0.71600
O339        O  0.27110637  0.23714751  0.89698020    -0.71600
O340        O  0.26730177  0.23369383  0.54137414    -0.71700
V341        V  0.23682827  0.26598042  0.46876246     1.35200
V342        V  0.26863508  0.23617269  0.96917071     1.35200
C343        C  0.25104036  0.24946128  0.56594217     0.77700
C344        C  0.25479481  0.25274256  0.87205017     0.77700
C345        C  0.18742835  0.18545267  0.97075498     0.77600
C346        C  0.31761842  0.31716126  0.97309256     0.77600
O347        O  0.18925237  0.22023849  0.72251428    -0.71600
O348        O  0.28840985  0.31501623  0.71508210    -0.71800
O349        O  0.23676267  0.26655635  0.64684841    -0.71600
O350        O  0.24008683  0.26948304  0.79087156    -0.71600
O351        O  0.27176594  0.23702186  0.79106384    -0.71600
O352        O  0.26689193  0.23257628  0.64640066    -0.71600
O353        O  0.31909239  0.28163642  0.71384553    -0.71600
O354        O  0.22063671  0.18758766  0.72357119    -0.71700
V355        V  0.23929718  0.26726628  0.71876903     1.35200
V356        V  0.26896892  0.23534415  0.71864058     1.35200
C357        C  0.18821484  0.18750254  0.72488999     0.77700
C358        C  0.32069995  0.31442874  0.71346683     0.77700
C359        C  0.25134267  0.24930091  0.62198765     0.77600
C360        C  0.25581322  0.25328045  0.81573029     0.77600
C361        C  0.11176483  0.07956328  0.71759557    -0.12000
C362        C  0.07514896  0.07750489  0.72668074     0.05000
C363        C  0.07807689  0.11561290  0.72135194    -0.07300
C364        C  0.11458365  0.15019849  0.72946503    -0.08100
C365        C  0.15017463  0.14987407  0.72783507    -0.02600
C366        C  0.14843610  0.11371881  0.72061719     0.04200
N367        N  0.18328065  0.11132112  0.71045700     0.66700
H368        H  0.11296337  0.05589703  0.69874073     0.15600
H369        H  0.11575772  0.17840899  0.72888920     0.15300
N370        N  0.05072649  0.12152637  0.69185962     0.74400
O371        O  0.19916248  0.10243796  0.74554842    -0.39100
O372        O  0.19435152  0.11190816  0.66551116    -0.39000
O373        O  0.04979633  0.15313794  0.69572564    -0.39700
O374        O  0.03613667  0.10113009  0.65320455    -0.39800
C375        C  0.42844255  0.39859249  0.70280222    -0.12000
C376        C  0.42811352  0.42295237  0.74129344     0.05000
C377        C  0.39225316  0.41010164  0.76855516    -0.07300
C378        C  0.35778862  0.37707541  0.75360689    -0.08100
C379        C  0.35863126  0.35142467  0.71842083    -0.02600
C380        C  0.39535236  0.36103878  0.69479956     0.04200
N381        N  0.40094709  0.33322541  0.66602759     0.66700
H382        H  0.45584462  0.40729507  0.68244951     0.15600
H383        H  0.33077774  0.36859951  0.77505231     0.15300
N384        N  0.39139641  0.42421414  0.81736027     0.74400
O385        O  0.42682718  0.34561292  0.63130921    -0.39100
O386        O  0.38938839  0.29934720  0.68399400    -0.39000
O387        O  0.36495478  0.43291872  0.82727090    -0.39700
O388        O  0.40209536  0.41003286  0.85231880    -0.39800
C389        C  0.10259069  0.01897842  0.79231258    -0.12000
C390        C  0.07688357  0.00086967  0.75133423     0.05000
C391        C  0.09057487  0.48734567  0.71104781    -0.07300
C392        C  0.12824437  0.49097930  0.71300902    -0.08100
C393        C  0.15239883  0.00729601  0.75394947    -0.02600
C394        C  0.13969537  0.02105592  0.79447432     0.04200
N395        N  0.16320329  0.03442098  0.83903150     0.66700
H396        H  0.09359450  0.03127179  0.82263803     0.15600
H397        H  0.13821816  0.47935375  0.68290490     0.15300
N398        N  0.06767654  0.47105476  0.66611153     0.74400
O399        O  0.18597031  0.07080823  0.84509422    -0.39100
O400        O  0.17067453  0.51096098  0.86341587    -0.39000
O401        O  0.03143422  0.95971087  0.66290924    -0.39700
O402        O  0.08388506  0.46555820  0.62810324    -0.39800
C403        C  0.36261336  0.98244574  0.70716662    -0.12000
C404        C  0.35356439  0.99895845  0.74825063     0.05000
C405        C  0.37957845  0.51286124  0.78980105    -0.07300
C406        C  0.41358207  0.50940462  0.78984463    -0.08100
C407        C  0.42398245  0.99477981  0.74746963    -0.02600
C408        C  0.39797384  0.98094439  0.70571079     0.04200
N409        N  0.40581019  0.96374132  0.66279666     0.66700
H410        H  0.34254948  0.97157073  0.67548284     0.15600
H411        H  0.43214242  0.51802463  0.82258149     0.15300
N412        N  0.37030711  0.52838631  0.83307774     0.73800
O413        O  0.37815634  0.93227764  0.64484981    -0.39100
O414        O  0.44042438  0.97818843  0.64462337    -0.39000
O415        O  0.34834467  0.50533036  0.86751984    -0.39700
O416        O  0.38871301  0.56501397  0.84040375    -0.39800
C417        C  0.08938212  0.09161317  0.94561437    -0.12000
C418        C  0.07530274  0.07720301  0.99465509     0.05000
C419        C  0.10038875  0.09801179  0.53547764    -0.07300
C420        C  0.13651555  0.13320049  0.52616622    -0.08100
C421        C  0.14959125  0.14775585  0.97771773    -0.02600
C422        C  0.12595548  0.12661877  0.93700728     0.04200
N423        N  0.13933787  0.14058113  0.88685681     0.66700
H424        H  0.07215395  0.07504660  0.91416828     0.15600
H425        H  0.15508651  0.14972480  0.55742910     0.15300
N426        N  0.09085599  0.08479899  0.58690515     0.74400
O427        O  0.16356488  0.13255975  0.86577693    -0.39100
O428        O  0.13556929  0.16858756  0.86968856    -0.39000
O429        O  0.05658839  0.05810326  0.60030947    -0.39700
O430        O  0.11885494  0.09586148  0.61765718    -0.39800
C431        C  0.41365704  0.39472504  0.53290052    -0.12000
C432        C  0.42532694  0.42780621  0.00106092     0.05000
C433        C  0.40029405  0.42440347  0.96084942    -0.07300
C434        C  0.36443620  0.38880058  0.95321686    -0.08100
C435        C  0.35476081  0.35512154  0.98230113    -0.02600
C436        C  0.37956421  0.35839065  0.52270577     0.04200
N437        N  0.36937292  0.32527504  0.55478141     0.66700
H438        H  0.43138294  0.39730168  0.56546076     0.15600
H439        H  0.34487725  0.38697813  0.92316415     0.15300
N440        N  0.41068872  0.45763039  0.92871385     0.74400
O441        O  0.38236053  0.30237785  0.54439688    -0.39100
O442        O  0.34125719  0.31444161  0.58622296    -0.39000
O443        O  0.44461775  0.47593867  0.90803582    -0.39700
O444        O  0.38568924  0.46840818  0.92040544    -0.39800
C445        C  0.10012370  0.01773751  0.54157707    -0.12000
C446        C  0.07394097  0.00346516  0.00107073     0.05000
C447        C  0.08521559  0.49121932  0.95927359    -0.07300
C448        C  0.11908621  0.48687725  0.96055399    -0.08100
C449        C  0.14673725  0.00429345  0.49834145    -0.02600
C450        C  0.13814468  0.02282620  0.53741562     0.04200
N451        N  0.16794422  0.04783755  0.57199651     0.66700
H452        H  0.09169184  0.02535675  0.57645975     0.15600
H453        H  0.12514585  0.47241621  0.93008210     0.15300
N454        N  0.06453837  0.48558153  0.91286901     0.74400
O455        O  0.18797287  0.08423944  0.56249125    -0.39100
O456        O  0.16880256  0.03536981  0.61555891    -0.39000
O457        O  0.04400318  0.50170936  0.90461579    -0.39700
O458        O  0.07300237  0.47087957  0.87640375    -0.39800
C459        C  0.38466096  0.03580292  0.54394391    -0.12000
C460        C  0.35003791  0.00141463  0.52954380     0.05000
C461        C  0.35040209  0.46568825  0.03656392    -0.07300
C462        C  0.38651150  0.46688068  0.04286247    -0.08100
C463        C  0.42305813  0.00184660  0.03621731    -0.02600
C464        C  0.42017931  0.03502096  0.55193846     0.04200
N465        N  0.44982230  0.06389853  0.58375959     0.66700
H466        H  0.38374939  0.06255820  0.55056245     0.15600
H467        H  0.38449213  0.43978382  0.05406141     0.15300
N468        N  0.31461788  0.42857622  0.04087801     0.74400
O469        O  0.45180711  0.09669949  0.09079807    -0.39100
O470        O  0.47227767  0.05535852  0.60797124    -0.39000
O471        O  0.30277439  0.40601138  0.00339995    -0.39700
O472        O  0.30096385  0.41394320  0.58023623    -0.39800
C473        C  0.01152272  0.12983235  0.80383700    -0.12000
C474        C  0.98929849  0.13916296  0.77030717     0.05000
C475        C  0.46656481  0.11166309  0.73229322    -0.07300
C476        C  0.47017550  0.07822877  0.72587744    -0.08100
C477        C  0.99420067  0.06956414  0.75739813    -0.02600
C478        C  0.01252877  0.09441865  0.79873035     0.04200
N479        N  0.03352596  0.08442865  0.83425991     0.66700
H480        H  0.02778361  0.14980402  0.83405577     0.15600
H481        H  0.45500214  0.05921980  0.69475791     0.15300
N482        N  0.44261947  0.11852708  0.69751540     0.74400
O483        O  0.07082772  0.10296472  0.83231955    -0.39100
O484        O  0.01599499  0.05113799  0.85577202    -0.39000
O485        O  0.45856675  0.14835730  0.66883663    -0.39700
O486        O  0.40765316  0.09143404  0.68883668    -0.39800
C487        C  0.02351696  0.37908156  0.73931409    -0.12000
C488        C  0.99111734  0.34597863  0.76096168     0.05000
C489        C  0.46387940  0.35193891  0.78850688    -0.07300
C490        C  0.46938248  0.39012057  0.79275227    -0.08100
C491        C  0.00322801  0.42325487  0.77282271    -0.02600
C492        C  0.03456213  0.41547018  0.76072113     0.04200
N493        N  0.06371769  0.42283233  0.79849085     0.66700
H494        H  0.04669413  0.37535097  0.72185285     0.15600
H495        H  0.44717328  0.39335108  0.81252983     0.15300
N496        N  0.43277083  0.32026421  0.81661976     0.74400
O497        O  0.05106753  0.40499554  0.84021322    -0.39100
O498        O  0.09744573  0.42931149  0.78410871    -0.39000
O499        O  0.44091003  0.30845511  0.85673571    -0.39700
O500        O  0.39903706  0.29990428  0.79715781    -0.39800
C501        C  0.47244072  0.12095418  0.97217104    -0.12000
C502        C  0.49952133  0.15177856  0.00204444     0.05000
C503        C  0.02864496  0.14720865  0.52755544    -0.07300
C504        C  0.02659962  0.11073625  0.02887986    -0.08100
C505        C  0.99954260  0.07886622  0.99955943    -0.02600
C506        C  0.47309426  0.08551110  0.96875647     0.04200
N507        N  0.44645750  0.05725508  0.93417502     0.66700
H508        H  0.45094714  0.12461183  0.95042811     0.15600
H509        H  0.04429131  0.10688884  0.05643521     0.15300
N510        N  0.06165677  0.17965732  0.55105101     0.74400
O511        O  0.45767388  0.06157161  0.38969600    -0.39100
O512        O  0.40980964  0.04336463  0.94165326    -0.39000
O513        O  0.06065194  0.18468618  0.59782496    -0.39700
O514        O  0.09540947  0.19488563  0.03687730    -0.39800
C515        C  0.47659015  0.36094029  0.97623840    -0.12000
C516        C  0.49311436  0.35305916  0.01776132     0.05000
C517        C  0.01163535  0.38190952  0.55471414    -0.07300
C518        C  0.01411361  0.41863357  0.54833586    -0.08100
C519        C  0.99987072  0.42824660  0.00625185    -0.02600
C520        C  0.48089292  0.39824604  0.96825164     0.04200
N521        N  0.46564529  0.40413586  0.92256994     0.66700
H522        H  0.46185552  0.33833584  0.94813988     0.15600
H523        H  0.02683683  0.44031710  0.57739269     0.15300
N524        N  0.02797212  0.37474396  0.59857746     0.74400
O525        O  0.49000644  0.42564374  0.88914549    -0.39100
O526        O  0.43220228  0.37817880  0.40757984    -0.39000
O527        O  0.06661380  0.38972330  0.10150594    -0.39700
O528        O  0.00682175  0.36209899  0.63784647    -0.39800
O529        O  0.45930403  0.73004465  0.08667592    -0.71600
O530        O  0.45957818  0.73463133  0.44281916    -0.71800
O531        O  0.46268516  0.68593940  0.01052723    -0.71600
O532        O  0.45862267  0.78130882  0.51744719    -0.71600
O533        O  0.02435637  0.81478542  0.01982214    -0.71600
O534        O  0.02702214  0.72012128  0.51080418    -0.71600
O535        O  0.02445755  0.76915929  0.44278126    -0.71600
O536        O  0.02532373  0.76364569  0.08761701    -0.71700
V537        V  0.46126969  0.73382388  0.01461901     1.35200
V538        V  0.02329910  0.76599645  0.51544366     1.35200
C539        C  0.99285387  0.74540570  0.11233721     0.77700
C540        C  0.99219372  0.75116923  0.41838216     0.77700
C541        C  0.49602273  0.68741339  0.50822023     0.77600
C542        C  0.49063839  0.81421203  0.51943995     0.77600
O543        O  0.45727594  0.77482929  0.26270431    -0.71600
O544        O  0.45722526  0.67794738  0.26804821    -0.71800
O545        O  0.45826391  0.72905512  0.33777374    -0.71600
O546        O  0.45786499  0.72592102  0.19266024    -0.71600
O547        O  0.02384111  0.75606702  0.19330834    -0.71600
O548        O  0.02369157  0.76297747  0.33707374    -0.71600
O549        O  0.02294442  0.70970907  0.27159827    -0.71600
O550        O  0.02289045  0.80691065  0.25931688    -0.71700
V551        V  0.45887907  0.72732459  0.26528332     1.35200
V552        V  0.02207509  0.75812531  0.26532840     1.35200
C553        C  0.99054335  0.80742638  0.25993466     0.77700
C554        C  0.99044036  0.67723308  0.27165630     0.77700
C555        C  0.99167671  0.74797878  0.36232715     0.77600
C556        C  0.99198060  0.74214012  0.16856692     0.77600
C557        C  0.46204952  0.96621755  0.51010222     0.02500
C558        C  0.99876521  0.96631425  0.50416735     0.02500
C559        C  0.03522840  0.50289909  0.50498294     0.02500
C560        C  0.03533377  0.53923263  0.50196629     0.02500
C561        C  0.99834454  0.53954045  0.50605562     0.02500
C562        C  0.46202838  0.50304325  0.51842483     0.02500
C563        C  0.03748904  0.53611270  0.24312266     0.02500
C564        C  0.03877301  0.49954715  0.25287659     0.02500
C565        C  0.00273414  0.96185662  0.25925758     0.02500
C566        C  0.46520022  0.96068266  0.25198888     0.02500
C567        C  0.46434090  0.49608240  0.24990477     0.02500
C568        C  0.99934824  0.53339291  0.25037283     0.02500
O569        O  0.23003490  0.97205788  0.07537465    -0.71600
O570        O  0.23700598  0.97143211  0.43112466    -0.71800
O571        O  0.28144896  0.97136390  0.00992840    -0.71600
O572        O  0.18453375  0.97184618  0.49763439    -0.71600
O573        O  0.21763109  0.53560199  0.99855635    -0.71600
O574        O  0.31533552  0.53582698  0.50920512    -0.71600
O575        O  0.27046933  0.53604510  0.43002422    -0.71600
O576        O  0.26312848  0.53469682  0.07466006    -0.71700
V577        V  0.23406380  0.97328406  0.00325577     1.35200
V578        V  0.26624820  0.53509197  0.50245251     1.35200
C579        C  0.24685082  0.50270804  0.09955213     0.77700
C580        C  0.25526216  0.50400474  0.40578093     0.77700
C581        C  0.31375788  0.50183625  0.01497116     0.77600
C582        C  0.18465430  0.50391462  0.99738800     0.77600
O583        O  0.23817350  0.97150799  0.32508630    -0.71600
O584        O  0.23379397  0.97183884  0.18062175    -0.71800
O585        O  0.28391293  0.96966296  0.24890901    -0.71600
O586        O  0.18873280  0.97346152  0.25561345    -0.71600
O587        O  0.22305930  0.53684409  0.25487514    -0.71600
O588        O  0.31867186  0.53315308  0.24905620    -0.71600
O589        O  0.26827436  0.53466320  0.17955090    -0.71600
O590        O  0.27261768  0.53541646  0.32398252    -0.71700
V591        V  0.23692361  0.97288445  0.25267861     1.35200
V592        V  0.27011954  0.53377251  0.25178404     1.35200
C593        C  0.25611244  0.50363627  0.34937730     0.77700
C594        C  0.24946507  0.50271324  0.15554611     0.77700
C595        C  0.31778069  0.50051072  0.24820718     0.77600
C596        C  0.19000763  0.50535999  0.25598052     0.77600
O597        O  0.23570081  0.76558637  0.04089612    -0.71600
O598        O  0.23728085  0.76684609  0.39594173    -0.71800
O599        O  0.18768085  0.71758333  0.96893888    -0.71600
O600        O  0.28440855  0.81543365  0.46906496    -0.71600
O601        O  0.31783323  0.78446477  0.97144048    -0.71600
O602        O  0.22029746  0.68596488  0.46790977    -0.71600
O603        O  0.27125295  0.73668862  0.39665673    -0.71600
O604        O  0.26759523  0.73330713  0.04069046    -0.71700
V605        V  0.23704501  0.76581021  0.96846771     1.35200
V606        V  0.26848563  0.73571366  0.46885375     1.35200
C607        C  0.25131269  0.74896936  0.06543340     0.77700
C608        C  0.25503272  0.75228200  0.37153491     0.77700
C609        C  0.18728862  0.68505461  0.47011589     0.77600
C610        C  0.31739997  0.81670631  0.47276198     0.77600
O611        O  0.18958965  0.71927118  0.22253163    -0.71600
O612        O  0.28831100  0.81434268  0.21396165    -0.71800
O613        O  0.23659129  0.76547824  0.14636501    -0.71600
O614        O  0.24048500  0.76899101  0.29027409    -0.71600
O615        O  0.27225971  0.73662633  0.29056150    -0.71600
O616        O  0.26728835  0.73203948  0.14582464    -0.71600
O617        O  0.31937985  0.78133219  0.21309874    -0.71600
O618        O  0.22124763  0.68688272  0.22319631    -0.71700
V619        V  0.23941790  0.76645549  0.21821782     1.35200
V620        V  0.26941468  0.73484675  0.21808802     1.35200
C621        C  0.18875021  0.68663017  0.22504207     0.77700
C622        C  0.32072509  0.81400303  0.21232895     0.77700
C623        C  0.25150401  0.74856501  0.12146230     0.77600
C624        C  0.25623022  0.75284305  0.31519091     0.77600
C625        C  0.11221839  0.57861126  0.21923967    -0.12000
C626        C  0.07569933  0.57663331  0.22877678     0.05000
C627        C  0.07865500  0.61473509  0.22325199    -0.07300
C628        C  0.11523557  0.64933002  0.23074299    -0.08100
C629        C  0.15078510  0.64896401  0.22882083    -0.02600
C630        C  0.14895453  0.61270532  0.22210015     0.04200
N631        N  0.18380686  0.61014905  0.21280918     0.66700
H632        H  0.11324922  0.55454318  0.20045551     0.15600
H633        H  0.11642142  0.67756671  0.22990050     0.15300
N634        N  0.05118065  0.62053514  0.19390610     0.74400
O635        O  0.19997166  0.60248052  0.24875847    -0.39100
O636        O  0.19455899  0.60925642  0.16811815    -0.39000
O637        O  0.05017476  0.65210169  0.19784181    -0.39700
O638        O  0.03659582  0.60014538  0.15524786    -0.39800
C639        C  0.42839344  0.89839777  0.20215509    -0.12000
C640        C  0.42782086  0.92257887  0.24073075     0.05000
C641        C  0.39168867  0.90970302  0.26739655    -0.07300
C642        C  0.35733363  0.87688327  0.25182598    -0.08100
C643        C  0.35849070  0.85118654  0.21700654    -0.02600
C644        C  0.39537395  0.86086331  0.19382792     0.04200
N645        N  0.40119024  0.83312817  0.16521760     0.66700
H646        H  0.45592807  0.90713126  0.18212807     0.15600
H647        H  0.33015738  0.86841871  0.27288296     0.15300
N648        N  0.39036841  0.92318931  0.31644263     0.74400
O649        O  0.42707612  0.84558538  0.13050838    -0.39100
O650        O  0.38985717  0.79934225  0.18334733    -0.39000
O651        O  0.36408645  0.93215602  0.32615347    -0.39700
O652        O  0.39998506  0.90790233  0.35120773    -0.39800
C653        C  0.10356007  0.51815439  0.29452117    -0.12000
C654        C  0.07741213  0.50000018  0.25388046     0.05000
C655        C  0.09070199  0.98726004  0.21035697    -0.07300
C656        C  0.12850165  0.99117176  0.21232712    -0.08100
C657        C  0.15287301  0.50609833  0.25528129    -0.02600
C658        C  0.14058722  0.51994898  0.29614114     0.04200
N659        N  0.16435064  0.53290437  0.34054431     0.66700
H660        H  0.09495624  0.53063686  0.32502279     0.15600
H661        H  0.13886267  0.98019303  0.18191648     0.15300
N662        N  0.06808699  0.97141932  0.16511062     0.74400
O663        O  0.18726735  0.56921494  0.34697005    -0.39100
O664        O  0.16807772  0.00568096  0.36294429    -0.39000
O665        O  0.03116298  0.45813482  0.16606672    -0.39700
O666        O  0.08453769  0.96630115  0.12708164    -0.39800
C667        C  0.36389707  0.48221533  0.20752553    -0.12000
C668        C  0.35462512  0.49880094  0.24833602     0.05000
C669        C  0.37940336  0.01243686  0.29031465    -0.07300
C670        C  0.41328539  0.00875826  0.29042855    -0.08100
C671        C  0.42483104  0.49427988  0.24876221    -0.02600
C672        C  0.39923979  0.48069699  0.20663999     0.04200
N673        N  0.40767443  0.46396267  0.16375974     0.66700
H674        H  0.34410575  0.47141019  0.17557353     0.15600
H675        H  0.43169144  0.01702975  0.32329635     0.15300
N676        N  0.37006405  0.02784299  0.33365412     0.73800
O677        O  0.38064836  0.43198383  0.14610922    -0.39100
O678        O  0.44226918  0.47950767  0.14521599    -0.39000
O679        O  0.34832859  0.00475468  0.36821277    -0.39700
O680        O  0.38786230  0.06450823  0.34062274    -0.39800
C681        C  0.08996109  0.59042378  0.44538388    -0.12000
C682        C  0.07523946  0.57696076  0.49452685     0.05000
C683        C  0.10116854  0.59835039  0.03651858    -0.07300
C684        C  0.13721342  0.63348383  0.02669304    -0.08100
C685        C  0.14944711  0.64745589  0.47724826    -0.02600
C686        C  0.12654925  0.62536909  0.43660011     0.04200
N687        N  0.14086304  0.63811687  0.38638669     0.66700
H688        H  0.07342723  0.57311923  0.41400405     0.15600
H689        H  0.15606342  0.65014330  0.05768817     0.15300
N690        N  0.09210286  0.58519876  0.08806063     0.74400
O691        O  0.16407586  0.62811121  0.36677585    -0.39100
O692        O  0.13911993  0.66686885  0.36773035    -0.39000
O693        O  0.05797062  0.55844778  0.10181192    -0.39700
O694        O  0.12026313  0.59662833  0.11866972    -0.39800
C695        C  0.41398115  0.89446064  0.03196130    -0.12000
C696        C  0.42496659  0.92742310  0.50046665     0.05000
C697        C  0.40020763  0.92377227  0.45984324    -0.07300
C698        C  0.36433362  0.88817537  0.45232270    -0.08100
C699        C  0.35445208  0.85470734  0.48195582    -0.02600
C700        C  0.38004464  0.85805956  0.02162972     0.04200
N701        N  0.37040254  0.82473402  0.05304347     0.66700
H702        H  0.43181577  0.89698675  0.06437458     0.15600
H703        H  0.34492196  0.88616833  0.42197724     0.15300
N704        N  0.41101688  0.95673090  0.42705725     0.74400
O705        O  0.38405932  0.80249681  0.04203165    -0.39100
O706        O  0.34219351  0.81307165  0.08450552    -0.39000
O707        O  0.44484431  0.97423449  0.40603299    -0.39700
O708        O  0.38674633  0.96850421  0.41922118    -0.39800
C709        C  0.10052803  0.51750429  0.04308921    -0.12000
C710        C  0.07383847  0.50319110  0.50192520     0.05000
C711        C  0.08463332  0.98977603  0.45872787    -0.07300
C712        C  0.11844519  0.98540712  0.46087504    -0.08100
C713        C  0.14706561  0.50450078  0.99870160    -0.02600
C714        C  0.13843135  0.52229311  0.03867730     0.04200
N715        N  0.16819251  0.54649417  0.07381290     0.66700
H716        H  0.09220748  0.52493386  0.07818179     0.15600
H717        H  0.12423256  0.96996912  0.43143884     0.15300
N718        N  0.06395363  0.98326702  0.41221001     0.74400
O719        O  0.18854870  0.58303344  0.06538909    -0.39100
O720        O  0.16898110  0.53309289  0.11677815    -0.39000
O721        O  0.04388987  0.99971812  0.40273252    -0.39700
O722        O  0.07234146  0.96775877  0.37660791    -0.39800
C723        C  0.38476199  0.53585711  0.04274553    -0.12000
C724        C  0.35015818  0.50107556  0.02942905     0.05000
C725        C  0.35006986  0.96578901  0.53497948    -0.07300
C726        C  0.38594308  0.96662277  0.54125838    -0.08100
C727        C  0.42345898  0.50230060  0.53684297    -0.02600
C728        C  0.42038708  0.53548684  0.05147836     0.04200
N729        N  0.44971041  0.56492219  0.08313058     0.66700
H730        H  0.38371430  0.56265745  0.04823324     0.15600
H731        H  0.38353130  0.93928386  0.55201948     0.15300
N732        N  0.31425243  0.92856718  0.53685182     0.74400
O733        O  0.45246713  0.59685265  0.59262875    -0.39100
O734        O  0.47261059  0.55722718  0.10777217    -0.39000
O735        O  0.30273431  0.90799679  0.49755373    -0.39700
O736        O  0.30063680  0.91289595  0.07914274    -0.39800
C737        C  0.01182703  0.62986285  0.30462284    -0.12000
C738        C  0.98934079  0.63863996  0.27080614     0.05000
C739        C  0.46634506  0.61041175  0.23238867    -0.07300
C740        C  0.47074702  0.57738644  0.22615207    -0.08100
C741        C  0.99468268  0.56907830  0.25951164    -0.02600
C742        C  0.01298683  0.59446443  0.30037321     0.04200
N743        N  0.03408840  0.58501894  0.33634112     0.66700
H744        H  0.02815342  0.65024614  0.33444949     0.15600
H745        H  0.45603597  0.55828360  0.19496863     0.15300
N746        N  0.44219031  0.61672507  0.19731192     0.74400
O747        O  0.07137155  0.60355775  0.33415986    -0.39100
O748        O  0.01664166  0.55201875  0.35857232    -0.39000
O749        O  0.45751060  0.64727787  0.16989947    -0.39700
O750        O  0.40798757  0.58880015  0.18709117    -0.39800
C751        C  0.02279598  0.87818476  0.23706831    -0.12000
C752        C  0.99060187  0.84517012  0.25915933     0.05000
C753        C  0.46290345  0.85109857  0.28833280    -0.07300
C754        C  0.46864909  0.88938853  0.29241643    -0.08100
C755        C  0.00293885  0.92251299  0.27118904    -0.02600
C756        C  0.03411656  0.91458569  0.25859836     0.04200
N757        N  0.06335899  0.92158197  0.29609476     0.66700
H758        H  0.04585837  0.87434955  0.21944859     0.15600
H759        H  0.44650178  0.89280146  0.31206414     0.15300
N760        N  0.43150208  0.81951611  0.31623338     0.74400
O761        O  0.05077826  0.90311004  0.33743426    -0.39100
O762        O  0.09703095  0.92818534  0.28126797    -0.39000
O763        O  0.43927117  0.80755875  0.35650229    -0.39700
O764        O  0.39784508  0.79937373  0.29648793    -0.39800
C765        C  0.47211822  0.62085068  0.47330279    -0.12000
C766        C  0.49901285  0.65160633  0.50333941     0.05000
C767        C  0.02924627  0.64761250  0.02963166    -0.07300
C768        C  0.02629361  0.61076332  0.52942964    -0.08100
C769        C  0.99958902  0.57895369  0.49969845    -0.02600
C770        C  0.47308369  0.58561159  0.46942910     0.04200
N771        N  0.44636895  0.55742148  0.43485293     0.66700
H772        H  0.45046570  0.62439871  0.45177117     0.15600
H773        H  0.04383383  0.60681869  0.55695886     0.15300
N774        N  0.06098346  0.67952043  0.05565568     0.74400
O775        O  0.45931039  0.56195464  0.88951139    -0.39100
O776        O  0.40975280  0.54370201  0.44239404    -0.39000
O777        O  0.05674351  0.68485243  0.10158479    -0.39700
O778        O  0.09314058  0.69153651  0.55054464    -0.39800
C779        C  0.47508760  0.86023616  0.47595782    -0.12000
C780        C  0.49106954  0.85209753  0.51778612     0.05000
C781        C  0.01278070  0.88262925  0.05307290    -0.07300
C782        C  0.01488281  0.91917291  0.04680261    -0.08100
C783        C  0.99928094  0.92773020  0.50418373    -0.02600
C784        C  0.48007868  0.89777858  0.46765894     0.04200
N785        N  0.46560573  0.90392494  0.42152439     0.66700
H786        H  0.46039408  0.83768339  0.44778234     0.15600
H787        H  0.02750746  0.94084821  0.07588673     0.15300
N788        N  0.02913012  0.87556162  0.09698929     0.74400
O789        O  0.49057913  0.92458434  0.38817677    -0.39100
O790        O  0.43278422  0.87903050  0.90731872    -0.39000
O791        O  0.06588661  0.88922501  0.59948671    -0.39700
O792        O  0.00746834  0.86147807  0.13562406    -0.39800
O793        O  0.45939446  0.73026059  0.58671036    -0.71600
O794        O  0.45962040  0.73485825  0.94281647    -0.71800
O795        O  0.46269359  0.68590745  0.51077747    -0.71600
O796        O  0.45862953  0.78135417  0.01760496    -0.71600
O797        O  0.02336476  0.81412834  0.52030242    -0.71600
O798        O  0.02842544  0.72095481  0.01066659    -0.71600
O799        O  0.02494367  0.76946492  0.94241343    -0.71600
O800        O  0.02360575  0.76260172  0.58785473    -0.71700
V801        V  0.46128708  0.73380200  0.51464151     1.35200
V802        V  0.02446187  0.76671956  0.01514076     1.35200
C803        C  0.99100740  0.74459060  0.61231857     0.77700
C804        C  0.99243838  0.75142594  0.91846588     0.77700
C805        C  0.49602798  0.68746803  0.00798791     0.77600
C806        C  0.49066587  0.81424416  0.01961753     0.77600
O807        O  0.45739968  0.77556143  0.76283082    -0.71600
O808        O  0.45738394  0.67869664  0.76797021    -0.71800
O809        O  0.45836801  0.72968050  0.83778397    -0.71600
O810        O  0.45801442  0.72667257  0.69268765    -0.71600
O811        O  0.02209070  0.75545591  0.69308964    -0.71600
O812        O  0.02312380  0.76305497  0.83671003    -0.71600
O813        O  0.02156342  0.70942190  0.77136344    -0.71600
O814        O  0.02188063  0.80676150  0.75898662    -0.71700
V815        V  0.45901405  0.72805025  0.76530574     1.35200
V816        V  0.02087690  0.75789136  0.76504627     1.35200
C817        C  0.98964411  0.80747931  0.76014523     0.77700
C818        C  0.98901338  0.67700550  0.77164433     0.77700
C819        C  0.99134530  0.74812956  0.86240489     0.77600
C820        C  0.99012345  0.74157184  0.66860578     0.77600
C821        C  0.46247575  0.96633923  0.01006746     0.02500
C822        C  0.99906014  0.96652763  0.00398865     0.02500
C823        C  0.03543866  0.50333589  0.00632578     0.02500
C824        C  0.03543152  0.53959614  0.00368854     0.02500
C825        C  0.99834437  0.53969284  0.00771059     0.02500
C826        C  0.46187471  0.50305977  0.01880777     0.02500
C827        C  0.03717677  0.53688992  0.74169858     0.02500
C828        C  0.03857521  0.50042890  0.75154341     0.02500
C829        C  0.00258011  0.96230269  0.75836931     0.02500
C830        C  0.46528627  0.96125835  0.75113811     0.02500
C831        C  0.46376498  0.49655334  0.74893383     0.02500
C832        C  0.99901438  0.53404201  0.74889376     0.02500
O833        O  0.22952499  0.97145094  0.57544359    -0.71600
O834        O  0.23729645  0.97198849  0.93111059    -0.71800
O835        O  0.28109803  0.97095081  0.51009086    -0.71600
O836        O  0.18505474  0.97262456  0.99763120    -0.71600
O837        O  0.21824920  0.53678325  0.49789349    -0.71600
O838        O  0.31427226  0.53407501  0.00886846    -0.71600
O839        O  0.26948996  0.53499351  0.93032435    -0.71600
O840        O  0.26383973  0.53654961  0.57446809    -0.71700
V841        V  0.23363836  0.97268559  0.50330499     1.35200
V842        V  0.26539316  0.53359463  0.00267834     1.35200
C843        C  0.24749004  0.50461243  0.59949315     0.77700
C844        C  0.25407845  0.50313883  0.90573511     0.77700
C845        C  0.31478817  0.50358391  0.51562683     0.77600
C846        C  0.18533990  0.50496218  0.49680549     0.77600
O847        O  0.23796086  0.97180936  0.82525803    -0.71600
O848        O  0.23324033  0.97150398  0.68083589    -0.71800
O849        O  0.28345657  0.96950440  0.74909038    -0.71600
O850        O  0.18840789  0.97367224  0.75580893    -0.71600
O851        O  0.22288235  0.53788769  0.75524583    -0.71600
O852        O  0.31823286  0.53375304  0.74961819    -0.71600
O853        O  0.26840945  0.53622189  0.67993871    -0.71600
O854        O  0.27182635  0.53538008  0.82448295    -0.71700
V855        V  0.23652776  0.97288399  0.75287578     1.35200
V856        V  0.26979535  0.53457453  0.75223768     1.35200
C857        C  0.25497721  0.50333092  0.84933548     0.77700
C858        C  0.24979046  0.50446019  0.65548734     0.77700
C859        C  0.31719791  0.50105042  0.74848090     0.77600
C860        C  0.18975774  0.50649598  0.75543801     0.77600
O861        O  0.23542250  0.76542788  0.54091693    -0.71600
O862        O  0.23758312  0.76708242  0.89595809    -0.71800
O863        O  0.18744734  0.71733565  0.46894726    -0.71600
O864        O  0.28480834  0.81557919  0.96903468    -0.71600
O865        O  0.31757509  0.78446181  0.47158036    -0.71600
O866        O  0.22041167  0.68609421  0.96802484    -0.71600
O867        O  0.27138434  0.73674773  0.89662531    -0.71600
O868        O  0.26739222  0.73322335  0.54072588    -0.71700
V869        V  0.23673955  0.76561043  0.46847682     1.35200
V870        V  0.26866752  0.73578910  0.96882341     1.35200
C871        C  0.25114051  0.74891828  0.56546668     0.77700
C872        C  0.25525557  0.75245079  0.87153576     0.77700
C873        C  0.18744133  0.68526000  0.97029229     0.77600
C874        C  0.31777078  0.81676461  0.97260178     0.77600
O875        O  0.18975548  0.71976698  0.72256811    -0.71600
O876        O  0.28867749  0.81456761  0.71407719    -0.71800
O877        O  0.23682207  0.76581082  0.64641655    -0.71600
O878        O  0.24078865  0.76930621  0.79033434    -0.71600
O879        O  0.27237808  0.73675764  0.79055765    -0.71600
O880        O  0.26727017  0.73213417  0.64585372    -0.71600
O881        O  0.31956342  0.78137685  0.71311641    -0.71600
O882        O  0.22117313  0.68714186  0.72325497    -0.71700
V883        V  0.23969103  0.76680074  0.71828063     1.35200
V884        V  0.26947674  0.73498613  0.71810982     1.35200
C885        C  0.18874914  0.68705296  0.72501040     0.77700
C886        C  0.32102777  0.81411009  0.71249803     0.77700
C887        C  0.25151847  0.74869598  0.62150315     0.77600
C888        C  0.25644871  0.75305358  0.81521106     0.77600
C889        C  0.11177042  0.57929510  0.71744554    -0.12000
C890        C  0.07538219  0.57746860  0.72756919     0.05000
C891        C  0.07853564  0.61570612  0.72312424    -0.07300
C892        C  0.11522300  0.65004521  0.73121856    -0.08100
C893        C  0.15067288  0.64949070  0.72850142    -0.02600
C894        C  0.14861840  0.61326277  0.72057412     0.04200
N895        N  0.18331487  0.61066321  0.71017057     0.66700
H896        H  0.11252262  0.55543767  0.69822538     0.15600
H897        H  0.11656797  0.67834584  0.73118028     0.15300
N898        N  0.05161107  0.62220691  0.69353116     0.74400
O899        O  0.19970302  0.60243279  0.74529380    -0.39100
O900        O  0.19420486  0.61109589  0.66518132    -0.39000
O901        O  0.04991991  0.65325002  0.69959098    -0.39700
O902        O  0.03981758  0.60451877  0.65242149    -0.39800
C903        C  0.42856381  0.89868390  0.70187714    -0.12000
C904        C  0.42797387  0.92302386  0.74023789     0.05000
C905        C  0.39196730  0.91006675  0.76722881    -0.07300
C906        C  0.35767687  0.87694544  0.75215662    -0.08100
C907        C  0.35882270  0.85124853  0.71731052    -0.02600
C908        C  0.39565051  0.86101062  0.69391809     0.04200
N909        N  0.40153172  0.83321668  0.66553011     0.66700
H910        H  0.45605479  0.90746222  0.68170790     0.15600
H911        H  0.33056463  0.86840401  0.77340277     0.15300
N912        N  0.39076806  0.92405317  0.81600935     0.74400
O913        O  0.42733718  0.84556834  0.63071742    -0.39100
O914        O  0.39033515  0.79953992  0.68394613    -0.39000
O915        O  0.36420489  0.93265673  0.82558950    -0.39700
O916        O  0.40109052  0.90964798  0.85109939    -0.39800
C917        C  0.10337908  0.51958391  0.79300870    -0.12000
C918        C  0.07725628  0.50108522  0.75250562     0.05000
C919        C  0.09063622  0.98759661  0.70983186    -0.07300
C920        C  0.12839073  0.99141786  0.71213012    -0.08100
C921        C  0.15274921  0.50742701  0.75427188    -0.02600
C922        C  0.14044935  0.52156532  0.79480995     0.04200
N923        N  0.16415459  0.53488349  0.83921560     0.66700
H924        H  0.09469074  0.53217794  0.82330549     0.15600
H925        H  0.13873089  0.98018342  0.68196868     0.15300
N926        N  0.06806877  0.97152732  0.66460379     0.74400
O927        O  0.18729901  0.57122735  0.84504798    -0.39100
O928        O  0.17009076  0.01068432  0.86306339    -0.39000
O929        O  0.03098927  0.45904282  0.66492068    -0.39700
O930        O  0.08446822  0.96593285  0.62688707    -0.39800
C931        C  0.36293956  0.48241052  0.70760610    -0.12000
C932        C  0.35395626  0.49918292  0.74845148     0.05000
C933        C  0.37920563  0.01253638  0.78957245    -0.07300
C934        C  0.41329132  0.00923054  0.78936813    -0.08100
C935        C  0.42422416  0.49473738  0.74811815    -0.02600
C936        C  0.39825316  0.48083354  0.70634200     0.04200
N937        N  0.40620818  0.46368864  0.66346686     0.66700
H938        H  0.34290960  0.47147851  0.67589466     0.15600
H939        H  0.43182997  0.01767695  0.82211257     0.15300
N940        N  0.36978552  0.02764686  0.83314358     0.73800
O941        O  0.37862399  0.43224791  0.64537618    -0.39100
O942        O  0.44081752  0.47836681  0.64520024    -0.39000
O943        O  0.34809847  0.00431745  0.86754217    -0.39700
O944        O  0.38768842  0.06424825  0.84062311    -0.39800
C945        C  0.08895032  0.59156348  0.94671535    -0.12000
C946        C  0.07528659  0.57742744  0.99598657     0.05000
C947        C  0.10040767  0.59821666  0.53540018    -0.07300
C948        C  0.13629128  0.63358572  0.52602446    -0.08100
C949        C  0.14957123  0.64771852  0.97782719    -0.02600
C950        C  0.12561273  0.62632707  0.93750825     0.04200
N951        N  0.13895852  0.63954152  0.88712953     0.66700
H952        H  0.07139450  0.57499309  0.91551708     0.15600
H953        H  0.15448659  0.65057023  0.55730539     0.15300
N954        N  0.09100867  0.58495108  0.58683900     0.74400
O955        O  0.16161842  0.62957110  0.86578546    -0.39100
O956        O  0.13676690  0.66837710  0.86967639    -0.39000
O957        O  0.05680395  0.55818168  0.60036844    -0.39700
O958        O  0.11909227  0.59611714  0.61748430    -0.39800
C959        C  0.41332701  0.89453070  0.53255103    -0.12000
C960        C  0.42538003  0.92753401  0.00029935     0.05000
C961        C  0.40039241  0.92398493  0.95996153    -0.07300
C962        C  0.36456726  0.88833011  0.95240506    -0.08100
C963        C  0.35492217  0.85473365  0.98164408    -0.02600
C964        C  0.37922989  0.85819422  0.52245421     0.04200
N965        N  0.36882431  0.82523545  0.55492629     0.66700
H966        H  0.43100058  0.89720296  0.56521065     0.15600
H967        H  0.34498818  0.88640681  0.92232389     0.15300
N968        N  0.41073215  0.95715663  0.92774214     0.74400
O969        O  0.38141935  0.80197143  0.54484242    -0.39100
O970        O  0.34086887  0.81491108  0.58649385    -0.39000
O971        O  0.44465069  0.97546338  0.90704361    -0.39700
O972        O  0.38568937  0.96786256  0.91933423    -0.39800
C973        C  0.10038435  0.51753376  0.54207870    -0.12000
C974        C  0.07405917  0.50373546  0.00284097     0.05000
C975        C  0.08530249  0.99059707  0.95800704    -0.07300
C976        C  0.11938078  0.98664558  0.95992242    -0.08100
C977        C  0.14748810  0.50512535  0.49795090    -0.02600
C978        C  0.13852013  0.52283951  0.53771196     0.04200
N979        N  0.16812202  0.54734098  0.57280834     0.66700
H980        H  0.09195560  0.52510780  0.57698630     0.15600
H981        H  0.12556120  0.97177892  0.93007891     0.15300
N982        N  0.06470045  0.98430973  0.91143691     0.74400
O983        O  0.18860538  0.58378290  0.56378416    -0.39100
O984        O  0.16849134  0.53440042  0.61624041    -0.39000
O985        O  0.04416446  0.00032639  0.90239372    -0.39700
O986        O  0.07345547  0.96937026  0.87549592    -0.39800
C987        C  0.38577376  0.53676563  0.54445242    -0.12000
C988        C  0.35102825  0.50246083  0.53006613     0.05000
C989        C  0.35039974  0.96601154  0.03483014    -0.07300
C990        C  0.38627019  0.96677981  0.04114152    -0.08100
C991        C  0.42312263  0.50206869  0.03702151    -0.02600
C992        C  0.42119094  0.53574061  0.55251411     0.04200
N993        N  0.45096090  0.56450323  0.58435224     0.66700
H994        H  0.38503199  0.56361916  0.55097584     0.15600
H995        H  0.38383267  0.93939496  0.05176711     0.15300
N996        N  0.31451693  0.92884154  0.03677822     0.74400
O997        O  0.45040715  0.59699859  0.09051373    -0.39100
O998        O  0.47358031  0.55592521  0.60812858    -0.39000
O999        O  0.30298741  0.90811896  0.99760743    -0.39700
O1000       O  0.30061912  0.91237385  0.57916861    -0.39800
C1001       C  0.01039999  0.62961129  0.80432794    -0.12000
C1002       C  0.98793655  0.63844677  0.77053745     0.05000
C1003       C  0.46618795  0.61119654  0.73182165    -0.07300
C1004       C  0.47030810  0.57801296  0.72542933    -0.08100
C1005       C  0.99434916  0.56964502  0.75799282    -0.02600
C1006       C  0.01208974  0.59454229  0.79943222     0.04200
N1007       N  0.03323994  0.58498526  0.83524512     0.66700
H1008       H  0.02637445  0.64973897  0.83453597     0.15600
H1009       H  0.45529713  0.55887700  0.69436962     0.15300
N1010       N  0.44201905  0.61769867  0.69694066     0.74400
O1011       O  0.07053078  0.60402228  0.83360320    -0.39100
O1012       O  0.01608056  0.55160114  0.85653019    -0.39000
O1013       O  0.45725367  0.64854991  0.67008930    -0.39700
O1014       O  0.40799384  0.58971264  0.68615443    -0.39800
C1015       C  0.02210379  0.87816175  0.73674896    -0.12000
C1016       C  0.98998414  0.84538457  0.75935524     0.05000
C1017       C  0.46321324  0.85196454  0.78857840    -0.07300
C1018       C  0.46894455  0.89026262  0.79235982    -0.08100
C1019       C  0.00278501  0.92299830  0.77061207    -0.02600
C1020       C  0.03374935  0.91482935  0.75770642     0.04200
N1021       N  0.06347191  0.92222420  0.79466646     0.66700
H1022       H  0.04495360  0.87405577  0.71900587     0.15600
H1023       H  0.44689736  0.89378123  0.81205383     0.15300
N1024       N  0.43199767  0.82052697  0.81688155     0.74400
O1025       O  0.05134210  0.90454023  0.83655687    -0.39100
O1026       O  0.09675410  0.92806755  0.77927285    -0.39000
O1027       O  0.44006899  0.80861744  0.85696095    -0.39700
O1028       O  0.39813600  0.80044034  0.79764192    -0.39800
C1029       C  0.47236404  0.62100907  0.97288358    -0.12000
C1030       C  0.49906600  0.65170518  0.00315217     0.05000
C1031       C  0.02768500  0.64689723  0.52996736    -0.07300
C1032       C  0.02662812  0.61094755  0.03100515    -0.08100
C1033       C  0.99964551  0.57907181  0.00154973    -0.02600
C1034       C  0.47332299  0.58576037  0.96925334     0.04200
N1035       N  0.44705826  0.55767928  0.93426108     0.66700
H1036       H  0.45092439  0.62463026  0.95096573     0.15600
H1037       H  0.04439718  0.60713252  0.05853206     0.15300
N1038       N  0.05673851  0.67759504  0.56053917     0.74400
O1039       O  0.45808273  0.56155106  0.38986911    -0.39100
O1040       O  0.41035418  0.54383429  0.94113028    -0.39000
O1041       O  0.04652173  0.68523865  0.60229442    -0.39700
O1042       O  0.09541933  0.69599543  0.03645832    -0.39800
C1043       C  0.47580433  0.86062069  0.97565631    -0.12000
C1044       C  0.49120056  0.85217987  0.01786579     0.05000
C1045       C  0.01237393  0.88226861  0.55283860    -0.07300
C1046       C  0.01463668  0.91887225  0.54654300    -0.08100
C1047       C  0.99967897  0.92803452  0.00427255    -0.02600
C1048       C  0.48098057  0.89824677  0.96744068     0.04200
N1049       N  0.46695629  0.90473263  0.92117296     0.66700
H1050       H  0.46135724  0.83822956  0.94724036     0.15600
H1051       H  0.02755469  0.94062142  0.57549725     0.15300
N1052       N  0.02887250  0.87523442  0.59660696     0.74400
O1053       O  0.49224405  0.92478653  0.88781958    -0.39100
O1054       O  0.43165521  0.87769364  0.40768350    -0.39000
O1055       O  0.06614265  0.88963547  0.10015116    -0.39700
O1056       O  0.00739842  0.86141805  0.63543125    -0.39800
O1057       O  0.96037228  0.23007116  0.08814873    -0.71600
O1058       O  0.95927632  0.23450669  0.44472965    -0.71800
O1059       O  0.96374903  0.18623227  0.01148317    -0.71600
O1060       O  0.95857421  0.28100920  0.51984814    -0.71600
O1061       O  0.52489558  0.31498740  0.01941615    -0.71600
O1062       O  0.52705309  0.22054101  0.50959469    -0.71600
O1063       O  0.52357621  0.26890063  0.44131770    -0.71600
O1064       O  0.52481561  0.26306294  0.08675626    -0.71700
V1065       V  0.96263578  0.23424797  0.01608088     1.35200
V1066       V  0.52303065  0.26626756  0.51395548     1.35200
C1067       C  0.49216486  0.24492999  0.11113269     0.77700
C1068       C  0.49113546  0.25091239  0.41728686     0.77700
C1069       C  0.99590162  0.18709125  0.50926206     0.77600
C1070       C  0.99061181  0.31392177  0.52142766     0.77600
O1071       O  0.95749548  0.27447625  0.26389137    -0.71600
O1072       O  0.95733871  0.17765590  0.27007058    -0.71800
O1073       O  0.95807119  0.22882125  0.33939688    -0.71600
O1074       O  0.95841866  0.22549063  0.19421197    -0.71600
O1075       O  0.52275905  0.25547172  0.19233425    -0.71600
O1076       O  0.52240515  0.26234428  0.33602014    -0.71600
O1077       O  0.52140046  0.20902263  0.27068044    -0.71600
O1078       O  0.52212491  0.30648933  0.25841316    -0.71700
V1079       V  0.95905394  0.22699371  0.26688497     1.35200
V1080       V  0.52088048  0.25754106  0.26433631     1.35200
C1081       C  0.48995510  0.30731821  0.25912565     0.77700
C1082       C  0.48881086  0.17666988  0.27077479     0.77700
C1083       C  0.49039963  0.24758091  0.36124361     0.77600
C1084       C  0.49098593  0.24164582  0.16742640     0.77600
C1085       C  0.96242215  0.46626401  0.51120988     0.02500
C1086       C  0.49898075  0.46662835  0.50443795     0.02500
C1087       C  0.53486785  0.00312571  0.50415504     0.02500
C1088       C  0.53487347  0.03943067  0.50168049     0.02500
C1089       C  0.49777563  0.03951125  0.50584958     0.02500
C1090       C  0.96136202  0.00230793  0.51793697     0.02500
C1091       C  0.53695814  0.03655477  0.24133593     0.02500
C1092       C  0.53824702  0.99996461  0.25089341     0.02500
C1093       C  0.50338003  0.46210650  0.26015178     0.02500
C1094       C  0.96571704  0.46035269  0.25385592     0.02500
C1095       C  0.96373286  0.99589247  0.24936861     0.02500
C1096       C  0.49875933  0.03370461  0.24847263     0.02500
O1097       O  0.72950235  0.47085994  0.07473142    -0.71600
O1098       O  0.73810236  0.47198834  0.43053187    -0.71800
O1099       O  0.78106547  0.47029156  0.00943356    -0.71600
O1100       O  0.68542341  0.47268062  0.49646954    -0.71600
O1101       O  0.71820015  0.03650319  0.99824307    -0.71600
O1102       O  0.81427433  0.03478080  0.50869505    -0.71600
O1103       O  0.76942771  0.03518579  0.42972332    -0.71600
O1104       O  0.76358144  0.03550752  0.07449632    -0.71700
V1105       V  0.73358422  0.47216595  0.00256482     1.35200
V1106       V  0.76530728  0.03428639  0.50206665     1.35200
C1107       C  0.74720414  0.00345639  0.09925077     0.77700
C1108       C  0.75387850  0.00316876  0.40546116     0.77700
C1109       C  0.81432353  0.00262593  0.01490317     0.77600
C1110       C  0.68522628  0.00478036  0.99690630     0.77600
O1111       O  0.73899069  0.47151679  0.32469116    -0.71600
O1112       O  0.73380796  0.47091486  0.18023969    -0.71800
O1113       O  0.78424197  0.46896561  0.24839173    -0.71600
O1114       O  0.68928021  0.47325265  0.25554254    -0.71600
O1115       O  0.72249004  0.03701060  0.25424386    -0.71600
O1116       O  0.81794795  0.03295126  0.24961901    -0.71600
O1117       O  0.76820988  0.03506384  0.17951710    -0.71600
O1118       O  0.77139612  0.03492402  0.32396983    -0.71700
V1119       V  0.73735616  0.47242037  0.25230452     1.35200
V1120       V  0.76946251  0.03374003  0.25176303     1.35200
C1121       C  0.75468459  0.00300747  0.34907614     0.77700
C1122       C  0.74951663  0.00324386  0.15522809     0.77700
C1123       C  0.81696552  0.00026585  0.24868900     0.77600
C1124       C  0.68936201  0.00560764  0.25463831     0.77600
O1125       O  0.73562386  0.26613026  0.04192349    -0.71600
O1126       O  0.73707481  0.26779478  0.39673851    -0.71800
O1127       O  0.68743641  0.21814764  0.96999955    -0.71600
O1128       O  0.78429424  0.31623904  0.46995475    -0.71600
O1129       O  0.81760861  0.28487349  0.97228458    -0.71600
O1130       O  0.71946433  0.18677942  0.46888732    -0.71600
O1131       O  0.77066389  0.23724590  0.39768520    -0.71600
O1132       O  0.76740551  0.23374043  0.04156534    -0.71700
V1133       V  0.73685449  0.26636893  0.96952166     1.35200
V1134       V  0.76780335  0.23634548  0.46985968     1.35200
C1135       C  0.75122678  0.24947680  0.06638411     0.77700
C1136       C  0.75465621  0.25299637  0.37245490     0.77700
C1137       C  0.68653415  0.18603457  0.47076347     0.77600
C1138       C  0.81716468  0.31724654  0.47373666     0.77600
O1139       O  0.68935586  0.22006584  0.22327583    -0.71600
O1140       O  0.78844184  0.31490475  0.21487860    -0.71800
O1141       O  0.73663891  0.26614986  0.14723615    -0.71600
O1142       O  0.74033604  0.26973975  0.29110621    -0.71600
O1143       O  0.77175945  0.23703134  0.29161625    -0.71600
O1144       O  0.76713420  0.23251707  0.14684323    -0.71600
O1145       O  0.81917805  0.28157145  0.21432875    -0.71600
O1146       O  0.72079180  0.18746638  0.22402930    -0.71700
V1147       V  0.73936058  0.26714790  0.21906964     1.35200
V1148       V  0.76908776  0.23527900  0.21912867     1.35200
C1149       C  0.68835513  0.18733725  0.22566408     0.77700
C1150       C  0.82074964  0.31433694  0.21342642     0.77700
C1151       C  0.75146299  0.24912188  0.12240899     0.77600
C1152       C  0.75589076  0.25346002  0.31612782     0.77600
C1153       C  0.61188021  0.07935796  0.21868232    -0.12000
C1154       C  0.57522834  0.07725539  0.22758304     0.05000
C1155       C  0.57819471  0.11540225  0.22228543    -0.07300
C1156       C  0.61473169  0.15000435  0.23021592    -0.08100
C1157       C  0.65031613  0.14967029  0.22891948    -0.02600
C1158       C  0.64855271  0.11344990  0.22211725     0.04200
N1159       N  0.68347859  0.11089968  0.21342056     0.66700
H1160       H  0.61318514  0.05555073  0.19984018     0.15600
H1161       H  0.61592099  0.17823460  0.22933938     0.15300
N1162       N  0.55079910  0.12135767  0.19298054     0.74400
O1163       O  0.69980052  0.10401283  0.24990804    -0.39100
O1164       O  0.69385166  0.10877017  0.16894141    -0.39000
O1165       O  0.54940504  0.15266725  0.19775599    -0.39700
O1166       O  0.53708462  0.10182008  0.15349797    -0.39800
C1167       C  0.92875344  0.39812785  0.20392422    -0.12000
C1168       C  0.92828661  0.42228739  0.24259946     0.05000
C1169       C  0.89214057  0.40954447  0.26918469    -0.07300
C1170       C  0.85767803  0.37696181  0.25337103    -0.08100
C1171       C  0.85866097  0.35133559  0.21829944    -0.02600
C1172       C  0.89552782  0.36080432  0.19520824     0.04200
N1173       N  0.90107034  0.33309177  0.16612911     0.66700
H1174       H  0.95628327  0.40675059  0.18395877     0.15600
H1175       H  0.83049787  0.36859817  0.27436651     0.15300
N1176       N  0.89082051  0.42293241  0.31829383     0.74400
O1177       O  0.92712778  0.34561562  0.13161967    -0.39100
O1178       O  0.88919989  0.29902801  0.18364403    -0.39000
O1179       O  0.86461768  0.43199846  0.32803892    -0.39700
O1180       O  0.90025408  0.40743829  0.35299213    -0.39800
C1181       C  0.60271119  0.01810201  0.29284399    -0.12000
C1182       C  0.57684588  0.00039562  0.25187049     0.05000
C1183       C  0.59118288  0.48713136  0.21116376    -0.07300
C1184       C  0.62882819  0.49069691  0.21304565    -0.08100
C1185       C  0.65232810  0.00656080  0.25349929    -0.02600
C1186       C  0.63970482  0.01987430  0.29457955     0.04200
N1187       N  0.66288920  0.03183987  0.33948789     0.66700
H1188       H  0.59390690  0.03025951  0.32351483     0.15600
H1189       H  0.63880163  0.47918978  0.18279407     0.15300
N1190       N  0.56848679  0.47132725  0.16597919     0.74400
O1191       O  0.68618276  0.06795593  0.34687272    -0.39100
O1192       O  0.67225682  0.51142604  0.36324130    -0.39000
O1193       O  0.53090603  0.95929529  0.16367081    -0.39700
O1194       O  0.58505817  0.46678483  0.12764812    -0.39800
C1195       C  0.86306648  0.98210921  0.20771120    -0.12000
C1196       C  0.85378719  0.99844521  0.24877600     0.05000
C1197       C  0.87935727  0.51156793  0.29054020    -0.07300
C1198       C  0.91340922  0.50820132  0.29117647    -0.08100
C1199       C  0.92416363  0.99408709  0.24852672    -0.02600
C1200       C  0.89841338  0.98058148  0.20649403     0.04200
N1201       N  0.90657053  0.96378948  0.16340570     0.66700
H1202       H  0.84322205  0.97145356  0.17579927     0.15600
H1203       H  0.93147269  0.51638095  0.32436184     0.15300
N1204       N  0.86941067  0.52654817  0.33379771     0.73800
O1205       O  0.87909130  0.93244341  0.14498321    -0.39100
O1206       O  0.94125789  0.97859860  0.14535794    -0.39000
O1207       O  0.84797293  0.50321449  0.36834411    -0.39700
O1208       O  0.88669457  0.56317594  0.34091718    -0.39800
C1209       C  0.58835487  0.09231873  0.44551306    -0.12000
C1210       C  0.57472353  0.07737033  0.49447877     0.05000
C1211       C  0.60042636  0.09833903  0.03572380    -0.07300
C1212       C  0.63639478  0.13368810  0.02655735    -0.08100
C1213       C  0.64861136  0.14842852  0.47759268    -0.02600
C1214       C  0.62460141  0.12773658  0.43695542     0.04200
N1215       N  0.63712320  0.14274896  0.38697368     0.66700
H1216       H  0.57102884  0.07589305  0.41420296     0.15600
H1217       H  0.65477162  0.15032073  0.05790526     0.15300
N1218       N  0.59074901  0.08500277  0.08714968     0.74400
O1219       O  0.66132066  0.13560634  0.36406400    -0.39100
O1220       O  0.63226227  0.17051203  0.37147825    -0.39000
O1221       O  0.55651849  0.05807088  0.10029158    -0.39700
O1222       O  0.61854109  0.09646218  0.11832499    -0.39800
C1223       C  0.91408135  0.39440068  0.03312177    -0.12000
C1224       C  0.92520863  0.42755703  0.50154703     0.05000
C1225       C  0.90042046  0.42412856  0.46107642    -0.07300
C1226       C  0.86432999  0.38872907  0.45368016    -0.08100
C1227       C  0.85441123  0.35508200  0.48293646    -0.02600
C1228       C  0.88014183  0.35808578  0.02249492     0.04200
N1229       N  0.87081704  0.32444425  0.05309222     0.66700
H1230       H  0.93193939  0.39669023  0.06540265     0.15600
H1231       H  0.84484761  0.38697027  0.42356480     0.15300
N1232       N  0.91146123  0.45709879  0.42824498     0.74400
O1233       O  0.88482647  0.30265213  0.04126670    -0.39100
O1234       O  0.84262412  0.31214754  0.08466849    -0.39000
O1235       O  0.94525682  0.47432033  0.40711823    -0.39700
O1236       O  0.88737752  0.46908735  0.42035321    -0.39800
C1237       C  0.60061768  0.01815302  0.04138040    -0.12000
C1238       C  0.57349277  0.00349826  0.50105524     0.05000
C1239       C  0.58531129  0.49079255  0.45763992    -0.07300
C1240       C  0.61952234  0.48700113  0.45908720    -0.08100
C1241       C  0.64750370  0.00517127  0.99783669    -0.02600
C1242       C  0.63867821  0.02327168  0.03724684     0.04200
N1243       N  0.66825817  0.04778024  0.07237444     0.66700
H1244       H  0.59218073  0.02575385  0.07626349     0.15600
H1245       H  0.62576635  0.47251890  0.42881712     0.15300
N1246       N  0.56448675  0.48451247  0.41125163     0.74400
O1247       O  0.68775017  0.08441865  0.06434997    -0.39100
O1248       O  0.66957901  0.03432812  0.11508785    -0.39000
O1249       O  0.54396430  0.50056903  0.40241551    -0.39700
O1250       O  0.57271886  0.46917388  0.37530011    -0.39800
C1251       C  0.88525060  0.03591007  0.04339647    -0.12000
C1252       C  0.85056609  0.00148314  0.02926203     0.05000
C1253       C  0.85082398  0.46647735  0.53589048    -0.07300
C1254       C  0.88664325  0.46721321  0.54253230    -0.08100
C1255       C  0.92246812  0.00120077  0.53582741    -0.02600
C1256       C  0.92074344  0.03511927  0.05155201     0.04200
N1257       N  0.95031544  0.06403292  0.08343499     0.66700
H1258       H  0.88440027  0.06272489  0.04973905     0.15600
H1259       H  0.88419757  0.43988672  0.55348255     0.15300
N1260       N  0.81490297  0.42935996  0.53819114     0.74400
O1261       O  0.95111441  0.09546677  0.59208413    -0.39100
O1262       O  0.97251962  0.05544722  0.10816558    -0.39000
O1263       O  0.80312123  0.40850170  0.49915488    -0.39700
O1264       O  0.80120349  0.41392850  0.08346534    -0.39800
C1265       C  0.51032688  0.12943686  0.30370116    -0.12000
C1266       C  0.48765364  0.13809556  0.27006327     0.05000
C1267       C  0.96552553  0.11001698  0.23494704    -0.07300
C1268       C  0.97013364  0.07730427  0.22734036    -0.08100
C1269       C  0.49400246  0.06927080  0.25768307    -0.02600
C1270       C  0.51186821  0.09428561  0.29898038     0.04200
N1271       N  0.53297464  0.08473882  0.33480467     0.66700
H1272       H  0.52651365  0.14971778  0.33368462     0.15600
H1273       H  0.95517555  0.05855402  0.19589899     0.15300
N1274       N  0.94035638  0.11612165  0.20154935     0.74400
O1275       O  0.57024820  0.10304621  0.33223196    -0.39100
O1276       O  0.51549939  0.05160190  0.35670059    -0.39000
O1277       O  0.95546878  0.14408386  0.16994648    -0.39700
O1278       O  0.90443195  0.08975327  0.19737867    -0.39800
C1279       C  0.52309782  0.37835584  0.23768597    -0.12000
C1280       C  0.49050874  0.34530091  0.25909981     0.05000
C1281       C  0.96307308  0.35061038  0.28979057    -0.07300
C1282       C  0.96889231  0.38890015  0.29412695    -0.08100
C1283       C  0.50352982  0.42277749  0.27224572    -0.02600
C1284       C  0.53457179  0.41470769  0.25950626     0.04200
N1285       N  0.56396200  0.42170126  0.29679910     0.66700
H1286       H  0.54614991  0.37441127  0.22025274     0.15600
H1287       H  0.94668862  0.39226026  0.31371316     0.15300
N1288       N  0.93151036  0.31893236  0.31738190     0.74400
O1289       O  0.55153254  0.40365868  0.33843270    -0.39100
O1290       O  0.59749398  0.42799279  0.28181211    -0.39000
O1291       O  0.93903018  0.30690716  0.35777917    -0.39700
O1292       O  0.89801183  0.29877515  0.29724646    -0.39800
C1293       C  0.97139479  0.12036839  0.47415483    -0.12000
C1294       C  0.99883762  0.15128459  0.50360666     0.05000
C1295       C  0.52871522  0.14747912  0.02730647    -0.07300
C1296       C  0.52606858  0.11097255  0.52863934    -0.08100
C1297       C  0.49886980  0.07883961  0.49973575    -0.02600
C1298       C  0.97240196  0.08515135  0.46986397     0.04200
N1299       N  0.94603522  0.05723210  0.43474728     0.66700
H1300       H  0.94954964  0.12391397  0.45306673     0.15600
H1301       H  0.54417075  0.10748229  0.55599357     0.15300
N1302       N  0.56002935  0.17924661  0.05403444     0.74400
O1303       O  0.95856157  0.06177462  0.88926687    -0.39100
O1304       O  0.90933493  0.04321331  0.44189534    -0.39000
O1305       O  0.55487881  0.18461832  0.09964613    -0.39700
O1306       O  0.59464077  0.19711711  0.52889113    -0.39800
C1307       C  0.97557877  0.36010057  0.47737987    -0.12000
C1308       C  0.99106383  0.35181833  0.51960678     0.05000
C1309       C  0.51416114  0.38336552  0.05244344    -0.07300
C1310       C  0.51570577  0.41970506  0.04675285    -0.08100
C1311       C  0.49924198  0.42794946  0.50442461    -0.02600
C1312       C  0.98050745  0.39762027  0.46907043     0.04200
N1313       N  0.96587550  0.40367839  0.42303699     0.66700
H1314       H  0.96115824  0.33762284  0.44903770     0.15600
H1315       H  0.52873363  0.44145534  0.07568580     0.15300
N1316       N  0.53201958  0.37681804  0.09521764     0.74400
O1317       O  0.99071610  0.42416238  0.38948463    -0.39100
O1318       O  0.93274761  0.37807847  0.90978420    -0.39000
O1319       O  0.56505869  0.38779093  0.59868536    -0.39700
O1320       O  0.51159477  0.36280676  0.13481548    -0.39800
O1321       O  0.95963451  0.22979607  0.58867121    -0.71600
O1322       O  0.96128835  0.23565406  0.94433250    -0.71800
O1323       O  0.96258637  0.18559960  0.51210335    -0.71600
O1324       O  0.96023113  0.28189520  0.01931603    -0.71600
O1325       O  0.52285131  0.31426260  0.51852345    -0.71600
O1326       O  0.52804369  0.22069489  0.00931241    -0.71600
O1327       O  0.52569262  0.27004010  0.94157055    -0.71600
O1328       O  0.52395020  0.26343291  0.58635700    -0.71700
V1329       V  0.96122197  0.23349769  0.51657002     1.35200
V1330       V  0.52456224  0.26669990  0.01427955     1.35200
C1331       C  0.49155563  0.24518992  0.61117655     0.77700
C1332       C  0.49335300  0.25236535  0.91724192     0.77700
C1333       C  0.99699178  0.18757611  0.00879520     0.77600
C1334       C  0.99231081  0.31474306  0.02133561     0.77600
O1335       O  0.95874945  0.27578976  0.76463702    -0.71600
O1336       O  0.95857618  0.17893043  0.76997499    -0.71800
O1337       O  0.96000739  0.23020495  0.83966836    -0.71600
O1338       O  0.95885251  0.22658230  0.69469929    -0.71600
O1339       O  0.52311773  0.25670055  0.69175772    -0.71600
O1340       O  0.52433782  0.26400464  0.83553779    -0.71600
O1341       O  0.52292216  0.21059300  0.76978384    -0.71600
O1342       O  0.52290429  0.30780126  0.75805178    -0.71700
V1343       V  0.96028692  0.22828201  0.76724866     1.35200
V1344       V  0.52205065  0.25899830  0.76378313     1.35200
C1345       C  0.49059280  0.30837001  0.75910851     0.77700
C1346       C  0.49038968  0.17815636  0.77039891     0.77700
C1347       C  0.49252099  0.24920190  0.86118528     0.77600
C1348       C  0.49103386  0.24244250  0.66743893     0.77600
C1349       C  0.96257822  0.46640231  0.01189997     0.02500
C1350       C  0.49906613  0.46686198  0.00492822     0.02500
C1351       C  0.53536606  0.00328597  0.00428709     0.02500
C1352       C  0.53530594  0.03953798  0.00178293     0.02500
C1353       C  0.49818483  0.03959968  0.00575204     0.02500
C1354       C  0.96185619  0.00268026  0.01778153     0.02500
C1355       C  0.53692261  0.03712461  0.74047868     0.02500
C1356       C  0.53829572  0.00061831  0.75010367     0.02500
C1357       C  0.50281230  0.46258722  0.75917013     0.02500
C1358       C  0.96556641  0.46104652  0.75321176     0.02500
C1359       C  0.96349806  0.99627285  0.74803506     0.02500
C1360       C  0.49874778  0.03427337  0.74768472     0.02500
O1361       O  0.73019984  0.47231133  0.57467335    -0.71600
O1362       O  0.73693857  0.47099543  0.93036275    -0.71800
O1363       O  0.78197848  0.47166942  0.50987502    -0.71600
O1364       O  0.68448907  0.47150260  0.99686398    -0.71600
O1365       O  0.71744670  0.03617462  0.49747913    -0.71600
O1366       O  0.81495088  0.03494874  0.00895710    -0.71600
O1367       O  0.77028732  0.03604876  0.93011654    -0.71600
O1368       O  0.76299889  0.03590507  0.57403022    -0.71700
V1369       V  0.73452555  0.47344028  0.50261124     1.35200
V1370       V  0.76603439  0.03452762  0.00251772     1.35200
C1371       C  0.74673706  0.00405506  0.59920471     0.77700
C1372       C  0.75481928  0.00420835  0.90547168     0.77700
C1373       C  0.81363614  0.00246143  0.51474405     0.77600
C1374       C  0.68447580  0.00442443  0.49656837     0.77600
O1375       O  0.73789692  0.47128988  0.82428928    -0.71600
O1376       O  0.73394979  0.47199245  0.67982072    -0.71800
O1377       O  0.78384601  0.46957185  0.74841285    -0.71600
O1378       O  0.68866903  0.47352665  0.75464194    -0.71600
O1379       O  0.72281499  0.03832779  0.75471953    -0.71600
O1380       O  0.81819432  0.03414583  0.74887694    -0.71600
O1381       O  0.76801173  0.03612362  0.67933614    -0.71600
O1382       O  0.77210857  0.03622479  0.82393640    -0.71700
V1383       V  0.73685769  0.47286085  0.75189536     1.35200
V1384       V  0.76973708  0.03497429  0.75165322     1.35200
C1385       C  0.75549310  0.00428711  0.84905476     0.77700
C1386       C  0.74921630  0.00420766  0.65521018     0.77700
C1387       C  0.81716116  0.00143803  0.74780402     0.77600
C1388       C  0.68967323  0.00694339  0.75531972     0.77600
O1389       O  0.73495529  0.26644612  0.54172683    -0.71600
O1390       O  0.73724167  0.26766178  0.89702799    -0.71800
O1391       O  0.68688609  0.21842236  0.46953670    -0.71600
O1392       O  0.78471008  0.31611527  0.97008345    -0.71600
O1393       O  0.81706135  0.28487190  0.47259790    -0.71600
O1394       O  0.72012579  0.18662022  0.96878624    -0.71600
O1395       O  0.77099249  0.23727424  0.89745372    -0.71600
O1396       O  0.76660956  0.23393249  0.54171563    -0.71700
V1397       V  0.73638882  0.26657324  0.46926515     1.35200
V1398       V  0.76839718  0.23626829  0.96966928     1.35200
C1399       C  0.75053720  0.24984356  0.56636879     0.77700
C1400       C  0.75478920  0.25296453  0.87248110     0.77700
C1401       C  0.68716623  0.18579751  0.97102454     0.77600
C1402       C  0.81764295  0.31721325  0.97360357     0.77600
O1403       O  0.68910266  0.22054082  0.72303350    -0.71600
O1404       O  0.78825048  0.31535491  0.71559658    -0.71800
O1405       O  0.73648568  0.26696777  0.64739044    -0.71600
O1406       O  0.74002150  0.26972859  0.79138973    -0.71600
O1407       O  0.77173405  0.23730116  0.79137310    -0.71600
O1408       O  0.76657851  0.23295421  0.64668911    -0.71600
O1409       O  0.81891355  0.28196120  0.71405174    -0.71600
O1410       O  0.72051368  0.18791364  0.72388163    -0.71700
V1411       V  0.73913443  0.26759230  0.71929516     1.35200
V1412       V  0.76881106  0.23567602  0.71892784     1.35200
C1413       C  0.68808786  0.18780920  0.72523988     0.77700
C1414       C  0.82053436  0.31475601  0.71381931     0.77700
C1415       C  0.75097896  0.24969233  0.62240702     0.77600
C1416       C  0.75579408  0.25352632  0.81614922     0.77600
C1417       C  0.61172291  0.07984625  0.71741508    -0.12000
C1418       C  0.57512065  0.07780102  0.72667477     0.05000
C1419       C  0.57800564  0.11586753  0.72133463    -0.07300
C1420       C  0.61446856  0.15045956  0.72957284    -0.08100
C1421       C  0.65007717  0.15016197  0.72798630    -0.02600
C1422       C  0.64838172  0.11404912  0.72052341     0.04200
N1423       N  0.68325550  0.11168277  0.71041813     0.66700
H1424       H  0.61292298  0.05634189  0.69871978     0.15600
H1425       H  0.61560161  0.17863456  0.72904341     0.15300
N1426       N  0.55074581  0.12173393  0.69158596     0.74400
O1427       O  0.69952108  0.10349808  0.74574043    -0.39100
O1428       O  0.69391374  0.11147075  0.66547240    -0.39000
O1429       O  0.54973769  0.15330983  0.69531278    -0.39700
O1430       O  0.53651871  0.10144925  0.65277342    -0.39800
C1431       C  0.92849384  0.39855976  0.70382812    -0.12000
C1432       C  0.92817885  0.42284504  0.74243069     0.05000
C1433       C  0.89224189  0.41006337  0.76948880    -0.07300
C1434       C  0.85770291  0.37731539  0.75412130    -0.08100
C1435       C  0.85849881  0.35170553  0.71883994    -0.02600
C1436       C  0.89525562  0.36117732  0.69544247     0.04200
N1437       N  0.90069838  0.33335893  0.66647986     0.66700
H1438       H  0.95592854  0.40716727  0.68362022     0.15600
H1439       H  0.83065214  0.36891334  0.77543697     0.15300
N1440       N  0.89132136  0.42371150  0.81856706     0.74400
O1441       O  0.92645139  0.34574442  0.63161204    -0.39100
O1442       O  0.88922687  0.29949346  0.68443113    -0.39000
O1443       O  0.86527151  0.43293377  0.82855070    -0.39700
O1444       O  0.90108906  0.40847153  0.85324225    -0.39800
C1445       C  0.60279215  0.01950823  0.79228233    -0.12000
C1446       C  0.57696682  0.00124121  0.75143679     0.05000
C1447       C  0.59054547  0.48739986  0.70982648    -0.07300
C1448       C  0.62817375  0.49090162  0.71191999    -0.08100
C1449       C  0.65262737  0.00787115  0.75383618    -0.02600
C1450       C  0.63995580  0.02167808  0.79435354     0.04200
N1451       N  0.66348261  0.03504470  0.83889693     0.66700
H1452       H  0.59383142  0.03184238  0.82260373     0.15600
H1453       H  0.63822763  0.47938770  0.68177459     0.15300
N1454       N  0.56772440  0.47122537  0.66479503     0.74400
O1455       O  0.68642119  0.07141434  0.84483690    -0.39100
O1456       O  0.66992792  0.50976856  0.86258304    -0.39000
O1457       O  0.53135445  0.95971864  0.66323102    -0.39700
O1458       O  0.58379743  0.46517678  0.62708313    -0.39800
C1459       C  0.86269387  0.98249468  0.70678556    -0.12000
C1460       C  0.85393533  0.99953119  0.74755593     0.05000
C1461       C  0.87941260  0.51259328  0.79068371    -0.07300
C1462       C  0.91349537  0.50923988  0.79091245    -0.08100
C1463       C  0.92394270  0.99450087  0.74719619    -0.02600
C1464       C  0.89789361  0.98065351  0.70545192     0.04200
N1465       N  0.90559089  0.96328511  0.66256874     0.66700
H1466       H  0.84256469  0.97155297  0.67517393     0.15600
H1467       H  0.93198285  0.51792483  0.82374582     0.15300
N1468       N  0.86993923  0.52797607  0.83394121     0.73800
O1469       O  0.87764584  0.93233934  0.64396621    -0.39100
O1470       O  0.94024643  0.97728609  0.64469756    -0.39000
O1471       O  0.84853285  0.50486968  0.86869089    -0.39700
O1472       O  0.88808410  0.56461146  0.84119022    -0.39800
C1473       C  0.58939717  0.09173318  0.94564644    -0.12000
C1474       C  0.57515350  0.07743169  0.99469628     0.05000
C1475       C  0.60032238  0.09802919  0.53530136    -0.07300
C1476       C  0.63633839  0.13332467  0.52610739    -0.08100
C1477       C  0.64927474  0.14816824  0.97790856    -0.02600
C1478       C  0.62595066  0.12677796  0.93712361     0.04200
N1479       N  0.63971896  0.14043705  0.88698983     0.66700
H1480       H  0.57237295  0.07507783  0.91409747     0.15600
H1481       H  0.65509089  0.14957843  0.55737359     0.15300
N1482       N  0.59087722  0.08459261  0.58663939     0.74400
O1483       O  0.66371897  0.13185817  0.86645268    -0.39100
O1484       O  0.63666369  0.16875230  0.86941405    -0.39000
O1485       O  0.55655022  0.05806010  0.60009565    -0.39700
O1486       O  0.61892106  0.09543366  0.61727648    -0.39800
C1487       C  0.91358954  0.39446155  0.53322873    -0.12000
C1488       C  0.92552173  0.42765460  0.00182873     0.05000
C1489       C  0.90067652  0.42432607  0.96144685    -0.07300
C1490       C  0.86465697  0.38886289  0.95387788    -0.08100
C1491       C  0.85488546  0.35509034  0.98281955    -0.02600
C1492       C  0.87952608  0.35817099  0.52283183     0.04200
N1493       N  0.86988637  0.32467697  0.55390329     0.66700
H1494       H  0.93139912  0.39686259  0.56560904     0.15600
H1495       H  0.84510825  0.38717611  0.92389164     0.15300
N1496       N  0.91153463  0.45747202  0.92897905     0.74400
O1497       O  0.88353517  0.30249798  0.54252034    -0.39100
O1498       O  0.84171126  0.31285923  0.58543924    -0.39000
O1499       O  0.94540552  0.47510593  0.90807353    -0.39700
O1500       O  0.88719143  0.46914618  0.92108397    -0.39800
C1501       C  0.59993928  0.01763890  0.54128439    -0.12000
C1502       C  0.57408269  0.00374302  0.00123095     0.05000
C1503       C  0.58494885  0.49070767  0.95803890    -0.07300
C1504       C  0.61876895  0.48626138  0.95967541    -0.08100
C1505       C  0.64677819  0.00480023  0.49748360    -0.02600
C1506       C  0.63802073  0.02288239  0.53695651     0.04200
N1507       N  0.66776485  0.04769712  0.57171896     0.66700
H1508       H  0.59142589  0.02496037  0.57631376     0.15600
H1509       H  0.62471028  0.47142811  0.92956575     0.15300
N1510       N  0.56416511  0.48462719  0.91163390     0.74400
O1511       O  0.68784981  0.08414390  0.56253075    -0.39100
O1512       O  0.66870801  0.03494328  0.61506169    -0.39000
O1513       O  0.54382855  0.50090221  0.90291451    -0.39700
O1514       O  0.57249414  0.46952232  0.87550380    -0.39800
C1515       C  0.88448930  0.03537272  0.54376992    -0.12000
C1516       C  0.84989546  0.00121111  0.52868257     0.05000
C1517       C  0.85026091  0.46557071  0.03647484    -0.07300
C1518       C  0.88631890  0.46668512  0.04296811    -0.08100
C1519       C  0.92318663  0.00172713  0.03619177    -0.02600
C1520       C  0.91992651  0.03440459  0.55188524     0.04200
N1521       N  0.94951057  0.06305129  0.58399977     0.66700
H1522       H  0.88359617  0.06208303  0.55084752     0.15600
H1523       H  0.88418397  0.43950272  0.05398468     0.15300
N1524       N  0.81445873  0.42844327  0.04030091     0.74400
O1525       O  0.95183864  0.09647082  0.09102505    -0.39100
O1526       O  0.97194008  0.05437064  0.60804113    -0.39000
O1527       O  0.80258319  0.40633727  0.00238618    -0.39700
O1528       O  0.80122961  0.41358019  0.58069126    -0.39800
C1529       C  0.51169539  0.13058934  0.80284777    -0.12000
C1530       C  0.48920658  0.13955943  0.76928620     0.05000
C1531       C  0.96702347  0.11173109  0.73269593    -0.07300
C1532       C  0.97038659  0.07817037  0.72604771    -0.08100
C1533       C  0.49416899  0.06991490  0.75728094    -0.02600
C1534       C  0.51263684  0.09509934  0.79830921     0.04200
N1535       N  0.53379929  0.08543154  0.83399130     0.66700
H1536       H  0.52817157  0.15087987  0.83269082     0.15600
H1537       H  0.95531791  0.05938792  0.69470194     0.15300
N1538       N  0.94413676  0.11948453  0.69722842     0.74400
O1539       O  0.57110238  0.10443648  0.83244594    -0.39100
O1540       O  0.51654511  0.05215319  0.85554194    -0.39000
O1541       O  0.96124545  0.14921634  0.66850364    -0.39700
O1542       O  0.90902953  0.09304868  0.68782953    -0.39800
C1543       C  0.52297744  0.37924580  0.73696190    -0.12000
C1544       C  0.49074432  0.34614846  0.75886212     0.05000
C1545       C  0.96399135  0.35178102  0.78999903    -0.07300
C1546       C  0.96941440  0.38995621  0.79392450    -0.08100
C1547       C  0.50311570  0.42338267  0.77145398    -0.02600
C1548       C  0.53429748  0.41551234  0.75884330     0.04200
N1549       N  0.56339126  0.42232020  0.79648890     0.66700
H1550       H  0.54603028  0.37549468  0.71915522     0.15600
H1551       H  0.94713126  0.39318981  0.81347534     0.15300
N1552       N  0.93252046  0.32007073  0.81764206     0.74400
O1553       O  0.55064265  0.40415252  0.83799118    -0.39100
O1554       O  0.59702090  0.42863871  0.78190740    -0.39000
O1555       O  0.94013443  0.30811894  0.85803036    -0.39700
O1556       O  0.89902210  0.29981575  0.79754876    -0.39800
C1557       C  0.97271750  0.12106775  0.97297241    -0.12000
C1558       C  0.99978515  0.15170499  0.00313934     0.05000
C1559       C  0.52867301  0.14761763  0.52687639    -0.07300
C1560       C  0.52625979  0.11091026  0.02866034    -0.08100
C1561       C  0.49931160  0.07891881  0.99941480    -0.02600
C1562       C  0.97338237  0.08564796  0.96904676     0.04200
N1563       N  0.94676924  0.05757636  0.93423114     0.66700
H1564       H  0.95120699  0.12484774  0.95144961     0.15600
H1565       H  0.54387040  0.10716829  0.05647150     0.15300
N1566       N  0.56128980  0.18001876  0.55101926     0.74400
O1567       O  0.95811835  0.06173515  0.38988365    -0.39100
O1568       O  0.91010833  0.04355961  0.94172558    -0.39000
O1569       O  0.55941671  0.18508931  0.59763237    -0.39700
O1570       O  0.59481804  0.19566072  0.03593797    -0.39800
C1571       C  0.97721573  0.36100021  0.97717049    -0.12000
C1572       C  0.99284240  0.35272421  0.01932676     0.05000
C1573       C  0.51163564  0.38194462  0.55290012    -0.07300
C1574       C  0.51419740  0.41871259  0.54684813    -0.08100
C1575       C  0.49968331  0.42834776  0.00485909    -0.02600
C1576       C  0.98159702  0.39837029  0.96926495     0.04200
N1577       N  0.96668834  0.40446034  0.92343503     0.66700
H1578       H  0.96297447  0.33861371  0.94869274     0.15600
H1579       H  0.52706359  0.44031426  0.57598799     0.15300
N1580       N  0.52814808  0.37463704  0.59645904     0.74400
O1581       O  0.99127377  0.42568830  0.89004190    -0.39100
O1582       O  0.93183094  0.37745311  0.40949729    -0.39000
O1583       O  0.56919853  0.39153156  0.09655924    -0.39700
O1584       O  0.50703570  0.36152228  0.63568940    -0.39800
O1585       O  0.96091173  0.73063593  0.08770185    -0.71600
O1586       O  0.96008986  0.73470112  0.44339628    -0.71800
O1587       O  0.96401019  0.68638376  0.01172054    -0.71600
O1588       O  0.95892182  0.78126025  0.51795129    -0.71600
O1589       O  0.52308262  0.81433937  0.01943922    -0.71600
O1590       O  0.52710056  0.72051287  0.50990312    -0.71600
O1591       O  0.52393993  0.76915939  0.44170047    -0.71600
O1592       O  0.52371551  0.76294609  0.08689939    -0.71700
V1593       V  0.96257726  0.73422230  0.01569008     1.35200
V1594       V  0.52316810  0.76629145  0.51439931     1.35200
C1595       C  0.49117934  0.74476178  0.11147223     0.77700
C1596       C  0.49155154  0.75105661  0.41755295     0.77700
C1597       C  0.99586278  0.68708991  0.50896548     0.77600
C1598       C  0.99097813  0.81410292  0.52011211     0.77600
O1599       O  0.95849656  0.77506448  0.26311358    -0.71600
O1600       O  0.95857325  0.67838014  0.26890603    -0.71800
O1601       O  0.95929279  0.72938238  0.33839150    -0.71600
O1602       O  0.95947211  0.72631203  0.19335865    -0.71600
O1603       O  0.52222579  0.75548977  0.19232324    -0.71600
O1604       O  0.52265706  0.76268820  0.33603031    -0.71600
O1605       O  0.52160250  0.70930921  0.27055454    -0.71600
O1606       O  0.52164807  0.80651411  0.25836797    -0.71700
V1607       V  0.96020088  0.72767946  0.26593880     1.35200
V1608       V  0.52074841  0.75770504  0.26431812     1.35200
C1609       C  0.48937940  0.80716150  0.25939125     0.77700
C1610       C  0.48912560  0.67682405  0.27067349     0.77700
C1611       C  0.49075336  0.74771760  0.36149853     0.77600
C1612       C  0.49030631  0.74158583  0.16771862     0.77600
C1613       C  0.96216926  0.96590020  0.51005556     0.02500
C1614       C  0.49861537  0.96655048  0.50418759     0.02500
C1615       C  0.53531510  0.50310282  0.50413331     0.02500
C1616       C  0.53543102  0.53945266  0.50150329     0.02500
C1617       C  0.49843973  0.53975108  0.50586058     0.02500
C1618       C  0.96197057  0.50289169  0.51885570     0.02500
C1619       C  0.53769211  0.53659752  0.24200541     0.02500
C1620       C  0.53911341  0.50011152  0.25169960     0.02500
C1621       C  0.50247470  0.96198623  0.25933258     0.02500
C1622       C  0.96546317  0.96051169  0.25183244     0.02500
C1623       C  0.96411314  0.49576547  0.25102116     0.02500
C1624       C  0.49951129  0.53376805  0.24915961     0.02500
O1625       O  0.73003113  0.97164841  0.07468909    -0.71600
O1626       O  0.73667125  0.97133863  0.43073956    -0.71800
O1627       O  0.78162688  0.97118876  0.00935585    -0.71600
O1628       O  0.68446169  0.97223599  0.49721411    -0.71600
O1629       O  0.71746474  0.53542518  0.99790099    -0.71600
O1630       O  0.81524074  0.53542323  0.50863035    -0.71600
O1631       O  0.77040812  0.53583714  0.42959558    -0.71600
O1632       O  0.76300380  0.53471896  0.07418464    -0.71700
V1633       V  0.73424444  0.97317799  0.00257241     1.35200
V1634       V  0.76621244  0.53478833  0.50200378     1.35200
C1635       C  0.74678362  0.50275723  0.09912411     0.77700
C1636       C  0.75516954  0.50383118  0.40529561     0.77700
C1637       C  0.81370960  0.50182430  0.01488017     0.77600
C1638       C  0.68449827  0.50371124  0.99663261     0.77600
O1639       O  0.73777834  0.97107643  0.32462607    -0.71600
O1640       O  0.73369020  0.97123317  0.18009492    -0.71800
O1641       O  0.78365456  0.96903083  0.24873143    -0.71600
O1642       O  0.68846931  0.97302669  0.25482851    -0.71600
O1643       O  0.72341547  0.53723282  0.25439736    -0.71600
O1644       O  0.81863788  0.53289725  0.24874049    -0.71600
O1645       O  0.76844632  0.53473647  0.17911192    -0.71600
O1646       O  0.77268910  0.53536214  0.32357653    -0.71700
V1647       V  0.73666512  0.97234923  0.25218653     1.35200
V1648       V  0.77025857  0.53380959  0.25136806     1.35200
C1649       C  0.75600075  0.50355089  0.34891094     0.77700
C1650       C  0.74949214  0.50279761  0.15510427     0.77700
C1651       C  0.81756907  0.50017591  0.24805712     0.77600
C1652       C  0.69026624  0.50587637  0.25535724     0.77600
O1653       O  0.73588294  0.76577028  0.04022862    -0.71600
O1654       O  0.73790501  0.76654815  0.39525540    -0.71800
O1655       O  0.68759657  0.71766687  0.96851116    -0.71600
O1656       O  0.78500537  0.81504767  0.46839105    -0.71600
O1657       O  0.81772169  0.78429034  0.97073565    -0.71600
O1658       O  0.72076799  0.68559210  0.46709112    -0.71600
O1659       O  0.77187181  0.73638502  0.39593775    -0.71600
O1660       O  0.76741710  0.73313857  0.03993085    -0.71700
V1661       V  0.73700500  0.76581205  0.96777116     1.35200
V1662       V  0.76900354  0.73531121  0.46816731     1.35200
C1663       C  0.75137066  0.74900630  0.06472335     0.77700
C1664       C  0.75567142  0.75201605  0.37083135     0.77700
C1665       C  0.68778884  0.68475141  0.46926797     0.77600
C1666       C  0.81796677  0.81628315  0.47219472     0.77600
O1667       O  0.69002820  0.71941488  0.22193992    -0.71600
O1668       O  0.78882997  0.81428187  0.21342044    -0.71800
O1669       O  0.73698462  0.76565528  0.14579907    -0.71600
O1670       O  0.74108280  0.76887380  0.28971657    -0.71600
O1671       O  0.77283785  0.73648936  0.28969656    -0.71600
O1672       O  0.76741575  0.73196354  0.14497504    -0.71600
O1673       O  0.81980380  0.78117899  0.21208026    -0.71600
O1674       O  0.72152960  0.68686828  0.22248608    -0.71700
V1675       V  0.73990858  0.76649035  0.21765375     1.35200
V1676       V  0.76977334  0.73475277  0.21722734     1.35200
C1677       C  0.68908688  0.68673252  0.22435973     0.77700
C1678       C  0.82120148  0.81387975  0.21157975     0.77700
C1679       C  0.75170188  0.74862446  0.12075464     0.77600
C1680       C  0.75685057  0.75267282  0.31448221     0.77600
C1681       C  0.61218121  0.57891796  0.21733043    -0.12000
C1682       C  0.57584334  0.57712350  0.22774067     0.05000
C1683       C  0.57892338  0.61530017  0.22306823    -0.07300
C1684       C  0.61560251  0.64968647  0.23093010    -0.08100
C1685       C  0.65106093  0.64915908  0.22802013    -0.02600
C1686       C  0.64902670  0.61293273  0.22014954     0.04200
N1687       N  0.68368938  0.61036160  0.20937095     0.66700
H1688       H  0.61284168  0.55509481  0.19810297     0.15600
H1689       H  0.61690868  0.67796128  0.23088544     0.15300
N1690       N  0.55178388  0.62158028  0.19362533     0.74400
O1691       O  0.69999279  0.60170993  0.24416778    -0.39100
O1692       O  0.69448711  0.61104099  0.16427645    -0.39000
O1693       O  0.55056406  0.65296278  0.19862628    -0.39700
O1694       O  0.53821419  0.60231410  0.15389202    -0.39800
C1695       C  0.92886258  0.89828348  0.20178643    -0.12000
C1696       C  0.92818517  0.92238531  0.24042596     0.05000
C1697       C  0.89203639  0.90939978  0.26705950    -0.07300
C1698       C  0.85773423  0.87660780  0.25136859    -0.08100
C1699       C  0.85895586  0.85102600  0.21641892    -0.02600
C1700       C  0.89585166  0.86077792  0.19325669     0.04200
N1701       N  0.90164984  0.83312131  0.16445223     0.66700
H1702       H  0.95642628  0.90706849  0.18180583     0.15600
H1703       H  0.83054488  0.86806356  0.27243903     0.15300
N1704       N  0.89067235  0.92261932  0.31624919     0.74400
O1705       O  0.92731562  0.84563301  0.12947652    -0.39100
O1706       O  0.89057813  0.79939462  0.18260866    -0.39000
O1707       O  0.86449749  0.93170975  0.32606237    -0.39700
O1708       O  0.89994125  0.90687375  0.35081258    -0.39800
C1709       C  0.60405835  0.51924095  0.29319846    -0.12000
C1710       C  0.57783715  0.50074656  0.25272684     0.05000
C1711       C  0.59034899  0.98716840  0.21006008    -0.07300
C1712       C  0.62806387  0.99082468  0.21187666    -0.08100
C1713       C  0.65328966  0.50688709  0.25437775    -0.02600
C1714       C  0.64112273  0.52114087  0.29492252     0.04200
N1715       N  0.66520286  0.53496203  0.33899103     0.66700
H1716       H  0.59547831  0.53191626  0.32350332     0.15600
H1717       H  0.63818707  0.97961996  0.18144811     0.15300
N1718       N  0.56761431  0.97140846  0.16490073     0.74400
O1719       O  0.68828709  0.57138989  0.34414123    -0.39100
O1720       O  0.66908177  0.00714290  0.36227545    -0.39000
O1721       O  0.53169196  0.45875819  0.16477825    -0.39700
O1722       O  0.58395642  0.96628246  0.12675838    -0.39800
C1723       C  0.86392420  0.48205946  0.20773167    -0.12000
C1724       C  0.85432999  0.49833204  0.24858012     0.05000
C1725       C  0.87920000  0.01178091  0.29036309    -0.07300
C1726       C  0.91327328  0.00839327  0.29044293    -0.08100
C1727       C  0.92463172  0.49400722  0.24952235    -0.02600
C1728       C  0.89928973  0.48058321  0.20712840     0.04200
N1729       N  0.90794633  0.46398307  0.16427663     0.66700
H1730       H  0.84435879  0.47145019  0.17554747     0.15600
H1731       H  0.93168372  0.01679418  0.32333620     0.15300
N1732       N  0.86964747  0.02690441  0.33380353     0.73800
O1733       O  0.88091818  0.43223495  0.14612220    -0.39100
O1734       O  0.94269629  0.47936305  0.14627400    -0.39000
O1735       O  0.84812908  0.00362771  0.36834874    -0.39700
O1736       O  0.88722389  0.06353833  0.34097033    -0.39800
C1737       C  0.58978642  0.59078462  0.44478265    -0.12000
C1738       C  0.57535179  0.57715533  0.49397218     0.05000
C1739       C  0.60057436  0.59851636  0.03510649    -0.07300
C1740       C  0.63654484  0.63376085  0.02559936    -0.08100
C1741       C  0.64988802  0.64723125  0.47644097    -0.02600
C1742       C  0.62652833  0.62552640  0.43587450     0.04200
N1743       N  0.64049124  0.63846365  0.38559839     0.66700
H1744       H  0.57286235  0.57378990  0.41344722     0.15600
H1745       H  0.65502849  0.65056363  0.05678389     0.15300
N1746       N  0.59126132  0.58527586  0.08657944     0.74400
O1747       O  0.66324728  0.62821382  0.36518785    -0.39100
O1748       O  0.63888862  0.66745993  0.36754811    -0.39000
O1749       O  0.55709683  0.55845338  0.10013270    -0.39700
O1750       O  0.61934131  0.59657311  0.11726622    -0.39800
C1751       C  0.91411056  0.89418319  0.03080249    -0.12000
C1752       C  0.92522687  0.92706720  0.50034984     0.05000
C1753       C  0.90072441  0.92332918  0.45941153    -0.07300
C1754       C  0.86486388  0.88774337  0.45183697    -0.08100
C1755       C  0.85497525  0.85427407  0.48148141    -0.02600
C1756       C  0.88035485  0.85773928  0.02020841     0.04200
N1757       N  0.87143190  0.82411594  0.05063123     0.66700
H1758       H  0.93210552  0.89654391  0.06295782     0.15600
H1759       H  0.84552780  0.88570745  0.42138093     0.15300
N1760       N  0.91187693  0.95617926  0.42629557     0.74400
O1761       O  0.88576657  0.80264852  0.03856535    -0.39100
O1762       O  0.84329446  0.81149527  0.08232923    -0.39000
O1763       O  0.94571983  0.97325691  0.40529069    -0.39700
O1764       O  0.88810293  0.96858680  0.41862626    -0.39800
C1765       C  0.60046923  0.51785216  0.04138906    -0.12000
C1766       C  0.57393247  0.50337159  0.50098219     0.05000
C1767       C  0.58461946  0.99040497  0.45801924    -0.07300
C1768       C  0.61856978  0.98622899  0.45980579    -0.08100
C1769       C  0.64685384  0.50425393  0.99765973    -0.02600
C1770       C  0.63831228  0.52247639  0.03718975     0.04200
N1771       N  0.66813240  0.54698651  0.07205994     0.66700
H1772       H  0.59221176  0.52558819  0.07630246     0.15600
H1773       H  0.62446729  0.97112383  0.43003504     0.15300
N1774       N  0.56382398  0.98402993  0.41160921     0.74400
O1775       O  0.68834192  0.58347446  0.06320993    -0.39100
O1776       O  0.66916223  0.53389727  0.11515250    -0.39000
O1777       O  0.54386806  0.00063262  0.40236007    -0.39700
O1778       O  0.57185403  0.96830720  0.37591939    -0.39800
C1779       C  0.88457093  0.53567071  0.04342715    -0.12000
C1780       C  0.85004987  0.50100119  0.02960409     0.05000
C1781       C  0.84984431  0.96549005  0.53332717    -0.07300
C1782       C  0.88561155  0.96614443  0.53993576    -0.08100
C1783       C  0.92343855  0.50219813  0.53728473    -0.02600
C1784       C  0.92017213  0.53523860  0.05218777     0.04200
N1785       N  0.94938747  0.56451315  0.08405618     0.66700
H1786       H  0.88349816  0.56243558  0.04915258     0.15600
H1787       H  0.88294699  0.93865011  0.55045478     0.15300
N1788       N  0.81400224  0.92826676  0.53392570     0.74400
O1789       O  0.95158553  0.59679232  0.59255957    -0.39100
O1790       O  0.97180829  0.55644477  0.10913623    -0.39000
O1791       O  0.80287030  0.90854106  0.49391718    -0.39700
O1792       O  0.80096592  0.91324095  0.08042994    -0.39800
C1793       C  0.51069067  0.62964500  0.30377219    -0.12000
C1794       C  0.48822987  0.63831566  0.26976731     0.05000
C1795       C  0.96689419  0.61058132  0.23383877    -0.07300
C1796       C  0.97069754  0.57720646  0.22783056    -0.08100
C1797       C  0.49469206  0.56938591  0.25808004    -0.02600
C1798       C  0.51239403  0.59454340  0.29931934     0.04200
N1799       N  0.53352646  0.58524502  0.33541657     0.66700
H1800       H  0.52662839  0.64991591  0.33386717     0.15600
H1801       H  0.95576592  0.55813082  0.19670010     0.15300
N1802       N  0.94298611  0.61718394  0.19866747     0.74400
O1803       O  0.57081754  0.60419372  0.33365912    -0.39100
O1804       O  0.51628573  0.55211345  0.35733249    -0.39000
O1805       O  0.95869680  0.64753489  0.17088495    -0.39700
O1806       O  0.90856830  0.58955801  0.18866923    -0.39800
C1807       C  0.52205351  0.87804245  0.23697774    -0.12000
C1808       C  0.48970468  0.84506646  0.25893918     0.05000
C1809       C  0.96359063  0.85102821  0.28834319    -0.07300
C1810       C  0.96905768  0.88921860  0.29221213    -0.08100
C1811       C  0.50255918  0.92259839  0.27128194    -0.02600
C1812       C  0.53357761  0.91451137  0.25847508     0.04200
N1813       N  0.56302327  0.92160074  0.29571159     0.66700
H1814       H  0.54501236  0.87408439  0.21928096     0.15600
H1815       H  0.94679855  0.89250223  0.31173462     0.15300
N1816       N  0.93229311  0.81939239  0.31630033     0.74400
O1817       O  0.55064016  0.90348498  0.33730451    -0.39100
O1818       O  0.59652729  0.92788646  0.28061992    -0.39000
O1819       O  0.94018334  0.80757618  0.35660001    -0.39700
O1820       O  0.89871697  0.79897111  0.29646417    -0.39800
C1821       C  0.97252941  0.62095823  0.47300147    -0.12000
C1822       C  0.99875745  0.65126465  0.50411294     0.05000
C1823       C  0.52833455  0.64756987  0.02851978    -0.07300
C1824       C  0.52668691  0.61121487  0.52871268    -0.08100
C1825       C  0.49961585  0.57913910  0.49961748    -0.02600
C1826       C  0.97339032  0.58566200  0.46912985     0.04200
N1827       N  0.94676018  0.55762638  0.43433906     0.66700
H1828       H  0.95129639  0.62479576  0.45093157     0.15600
H1829       H  0.54473855  0.60763808  0.55596425     0.15300
N1830       N  0.55937660  0.67936587  0.05555231     0.74400
O1831       O  0.95931960  0.56251320  0.89066331    -0.39100
O1832       O  0.91013749  0.54374606  0.44202297    -0.39000
O1833       O  0.55375826  0.68487062  0.10093960    -0.39700
O1834       O  0.59469120  0.69490743  0.53941538    -0.39800
C1835       C  0.97564201  0.86007167  0.47604232    -0.12000
C1836       C  0.99150616  0.85201889  0.51806661     0.05000
C1837       C  0.51192291  0.88221857  0.05299236    -0.07300
C1838       C  0.51443503  0.91895335  0.04682698    -0.08100
C1839       C  0.49903843  0.92792648  0.50419854    -0.02600
C1840       C  0.98047788  0.89754243  0.46762587     0.04200
N1841       N  0.96592505  0.90351629  0.42143582     0.66700
H1842       H  0.96106136  0.83747109  0.44789330     0.15600
H1843       H  0.52707582  0.94051776  0.07604688     0.15300
N1844       N  0.52826559  0.87493805  0.09675393     0.74400
O1845       O  0.99083925  0.92414068  0.38801925    -0.39100
O1846       O  0.93256782  0.87838633  0.90792756    -0.39000
O1847       O  0.56610857  0.88938083  0.59817723    -0.39700
O1848       O  0.50670590  0.86100513  0.13549680    -0.39800
O1849       O  0.95919400  0.72995762  0.58737408    -0.71600
O1850       O  0.96057807  0.73501978  0.94393056    -0.71800
O1851       O  0.96259318  0.68569069  0.51138993    -0.71600
O1852       O  0.95989154  0.78170721  0.01854532    -0.71600
O1853       O  0.52307751  0.81434455  0.51916423    -0.71600
O1854       O  0.52709397  0.72055616  0.00976345    -0.71600
O1855       O  0.52398481  0.76937497  0.94179818    -0.71600
O1856       O  0.52380693  0.76319094  0.58683925    -0.71700
V1857       V  0.96141206  0.73367918  0.51524906     1.35200
V1858       V  0.52315162  0.76629652  0.01447695     1.35200
C1859       C  0.49129113  0.74514494  0.61147462     0.77700
C1860       C  0.49161354  0.75137365  0.91760071     0.77700
C1861       C  0.99732607  0.68787790  0.00907592     0.77600
C1862       C  0.99190117  0.81463188  0.02012277     0.77600
O1863       O  0.95752301  0.77520389  0.76376632    -0.71600
O1864       O  0.95717432  0.67823558  0.76918354    -0.71800
O1865       O  0.95873053  0.72953838  0.83889527    -0.71600
O1866       O  0.95774211  0.72610377  0.69369587    -0.71600
O1867       O  0.52237876  0.75629572  0.69235136    -0.71600
O1868       O  0.52276483  0.76327241  0.83608842    -0.71600
O1869       O  0.52176482  0.71004480  0.77038824    -0.71600
O1870       O  0.52177780  0.80723499  0.75857956    -0.71700
V1871       V  0.95900994  0.72766125  0.76637372     1.35200
V1872       V  0.52088612  0.75843067  0.76435795     1.35200
C1873       C  0.48951561  0.80789018  0.75959247     0.77700
C1874       C  0.48928744  0.67756683  0.77041612     0.77700
C1875       C  0.49084944  0.74824231  0.86153802     0.77600
C1876       C  0.49045187  0.74227196  0.66774340     0.77600
C1877       C  0.96243019  0.96619040  0.00954751     0.02500
C1878       C  0.49910712  0.96672418  0.00426578     0.02500
C1879       C  0.53530897  0.50341621  0.00457993     0.02500
C1880       C  0.53529000  0.53967126  0.00191070     0.02500
C1881       C  0.49825877  0.53982588  0.00631321     0.02500
C1882       C  0.96187237  0.50288915  0.01979323     0.02500
C1883       C  0.53713700  0.53700447  0.74063170     0.02500
C1884       C  0.53849403  0.50049816  0.75034420     0.02500
C1885       C  0.50258563  0.96265279  0.75863431     0.02500
C1886       C  0.96529544  0.96093003  0.75084589     0.02500
C1887       C  0.96381451  0.49639108  0.75017172     0.02500
C1888       C  0.49898285  0.53422728  0.74786295     0.02500
O1889       O  0.72956995  0.97204376  0.57503923    -0.71600
O1890       O  0.73768447  0.97220306  0.93040147    -0.71800
O1891       O  0.78087752  0.97102829  0.50964445    -0.71600
O1892       O  0.68522276  0.97258445  0.99693178    -0.71600
O1893       O  0.71827784  0.53660009  0.49747647    -0.71600
O1894       O  0.81422964  0.53406094  0.00861719    -0.71600
O1895       O  0.76942004  0.53484508  0.92987766    -0.71600
O1896       O  0.76385164  0.53616405  0.57403778    -0.71700
V1897       V  0.73350016  0.97293405  0.50290096     1.35200
V1898       V  0.76529486  0.53351910  0.00221893     1.35200
C1899       C  0.74745764  0.50420992  0.59903226     0.77700
C1900       C  0.75399322  0.50296643  0.90534287     0.77700
C1901       C  0.81467394  0.50317605  0.51508311     0.77600
C1902       C  0.68533128  0.50483439  0.49616892     0.77600
O1903       O  0.73844466  0.97238111  0.82460159    -0.71600
O1904       O  0.73346904  0.97229699  0.68025240    -0.71800
O1905       O  0.78383032  0.97022379  0.74819563    -0.71600
O1906       O  0.68875930  0.97434925  0.75547703    -0.71600
O1907       O  0.72267683  0.53750668  0.75432856    -0.71600
O1908       O  0.81813747  0.53348788  0.74976100    -0.71600
O1909       O  0.76851984  0.53581519  0.67947989    -0.71600
O1910       O  0.77143698  0.53513856  0.82405930    -0.71700
V1911       V  0.73689486  0.97358755  0.75225420     1.35200
V1912       V  0.76964600  0.53424916  0.75181206     1.35200
C1913       C  0.75477166  0.50310738  0.84895165     0.77700
C1914       C  0.74980622  0.50404783  0.65505457     0.77700
C1915       C  0.81714909  0.50080428  0.74876239     0.77600
C1916       C  0.68955461  0.50610225  0.75465149     0.77600
O1917       O  0.73597665  0.76509203  0.54017432    -0.71600
O1918       O  0.73734356  0.76688434  0.89524066    -0.71800
O1919       O  0.68801486  0.71706087  0.46815314    -0.71600
O1920       O  0.78482002  0.81551888  0.96804522    -0.71600
O1921       O  0.81812138  0.78402642  0.47104331    -0.71600
O1922       O  0.72020696  0.68605758  0.96715293    -0.71600
O1923       O  0.77126071  0.73666675  0.89593432    -0.71600
O1924       O  0.76780429  0.73274773  0.54007154    -0.71700
V1925       V  0.73732620  0.76527733  0.46775717     1.35200
V1926       V  0.76851380  0.73567751  0.96808357     1.35200
C1927       C  0.75161774  0.74853489  0.56477142     0.77700
C1928       C  0.75504689  0.75226942  0.87083827     0.77700
C1929       C  0.68728623  0.68531026  0.96956726     0.77600
C1930       C  0.81774043  0.81663380  0.97171728     0.77600
O1931       O  0.68989149  0.71968944  0.72128027    -0.71600
O1932       O  0.78894555  0.81429239  0.71371962    -0.71800
O1933       O  0.73742157  0.76574659  0.64556134    -0.71600
O1934       O  0.74059468  0.76896885  0.78951681    -0.71600
O1935       O  0.77229781  0.73653037  0.79003517    -0.71600
O1936       O  0.76745916  0.73167783  0.64534045    -0.71600
O1937       O  0.81969048  0.78095860  0.71269830    -0.71600
O1938       O  0.72116291  0.68692584  0.72271592    -0.71700
V1939       V  0.73989377  0.76661148  0.71744979     1.35200
V1940       V  0.76953759  0.73465733  0.71760279     1.35200
C1941       C  0.68878933  0.68694802  0.72397953     0.77700
C1942       C  0.82123704  0.81373145  0.71228770     0.77700
C1943       C  0.75194963  0.74839495  0.62081574     0.77600
C1944       C  0.75626254  0.75279259  0.81453336     0.77600
C1945       C  0.61176630  0.57928265  0.71677558    -0.12000
C1946       C  0.57538226  0.57753093  0.72657762     0.05000
C1947       C  0.57856433  0.61575223  0.72165864    -0.07300
C1948       C  0.61526460  0.65013007  0.72947292    -0.08100
C1949       C  0.65067617  0.64948178  0.72726495    -0.02600
C1950       C  0.64860866  0.61321527  0.71978683     0.04200
N1951       N  0.68326991  0.61053320  0.70944456     0.66700
H1952       H  0.61254763  0.55545740  0.69753399     0.15600
H1953       H  0.61665860  0.67845118  0.72907158     0.15300
N1954       N  0.55139383  0.62202054  0.69230483     0.74400
O1955       O  0.69906518  0.60139126  0.74437515    -0.39100
O1956       O  0.69463594  0.61173714  0.66450675    -0.39000
O1957       O  0.55016828  0.65339447  0.69736357    -0.39700
O1958       O  0.53817857  0.60302488  0.65234061    -0.39800
C1959       C  0.92863508  0.89835675  0.70164397    -0.12000
C1960       C  0.92804158  0.92269481  0.74000783     0.05000
C1961       C  0.89215598  0.90965865  0.76726601    -0.07300
C1962       C  0.85790350  0.87635162  0.75251772    -0.08100
C1963       C  0.85902663  0.85078009  0.71742724    -0.02600
C1964       C  0.89578617  0.86063466  0.69382144     0.04200
N1965       N  0.90167390  0.83284538  0.66543984     0.66700
H1966       H  0.95609123  0.90719501  0.68135180     0.15600
H1967       H  0.83084618  0.86769774  0.77394725     0.15300
N1968       N  0.89110805  0.92404303  0.81584408     0.74400
O1969       O  0.92733444  0.84518008  0.63045991    -0.39100
O1970       O  0.89068043  0.79924919  0.68399348    -0.39000
O1971       O  0.86446107  0.93254370  0.82536216    -0.39700
O1972       O  0.90207670  0.91041762  0.85117412    -0.39800
C1973       C  0.60304784  0.51906662  0.79216295    -0.12000
C1974       C  0.57712847  0.50100533  0.75135979     0.05000
C1975       C  0.59066873  0.98787350  0.70996344    -0.07300
C1976       C  0.62846707  0.99177123  0.71218346    -0.08100
C1977       C  0.65251686  0.50703090  0.75339339    -0.02600
C1978       C  0.64005484  0.52090740  0.79405412     0.04200
N1979       N  0.66358538  0.53390352  0.83861515     0.66700
H1980       H  0.59426302  0.53144429  0.82261261     0.15600
H1981       H  0.63873968  0.98043468  0.68206810     0.15300
N1982       N  0.56801060  0.97162716  0.66483105     0.74400
O1983       O  0.68687774  0.57018837  0.84469349    -0.39100
O1984       O  0.67017088  0.01123622  0.86308730    -0.39000
O1985       O  0.53118166  0.45986446  0.66325367    -0.39700
O1986       O  0.58435721  0.96595469  0.62711717    -0.39800
C1987       C  0.86312160  0.48230112  0.70837922    -0.12000
C1988       C  0.85393746  0.49896351  0.74915038     0.05000
C1989       C  0.87969456  0.01324041  0.78876641    -0.07300
C1990       C  0.91342546  0.00931697  0.78891351    -0.08100
C1991       C  0.92427280  0.49460076  0.74925263    -0.02600
C1992       C  0.89846260  0.48079167  0.70732680     0.04200
N1993       N  0.90666485  0.46388064  0.66441937     0.66700
H1994       H  0.84323907  0.47143297  0.67651883     0.15600
H1995       H  0.93203976  0.01798221  0.82162065     0.15300
N1996       N  0.87098471  0.02954180  0.83170366     0.73800
O1997       O  0.87925709  0.43241015  0.64615730    -0.39100
O1998       O  0.94127426  0.47898878  0.64603288    -0.39000
O1999       O  0.84920565  0.00707097  0.86669789    -0.39700
O2000       O  0.88990068  0.06625820  0.83829859    -0.39800
C2001       C  0.58931917  0.59132584  0.94512357    -0.12000
C2002       C  0.57510942  0.57746990  0.99434026     0.05000
C2003       C  0.60081749  0.59817855  0.53472944    -0.07300
C2004       C  0.63691470  0.63329427  0.52523211    -0.08100
C2005       C  0.64938512  0.64780650  0.97680631    -0.02600
C2006       C  0.62600844  0.62613167  0.93623880     0.04200
N2007       N  0.63994532  0.63917423  0.88598194     0.66700
H2008       H  0.57223621  0.57451424  0.91372301     0.15600
H2009       H  0.65537432  0.65009141  0.55643647     0.15300
N2010       N  0.59145377  0.58498836  0.58618786     0.74400
O2011       O  0.66306732  0.62933744  0.86567911    -0.39100
O2012       O  0.63809450  0.66806037  0.86801755    -0.39000
O2013       O  0.55717805  0.55845454  0.59982504    -0.39700
O2014       O  0.61957974  0.59592530  0.61672059    -0.39800
C2015       C  0.91358120  0.89418614  0.53244359    -0.12000
C2016       C  0.92527250  0.92744684  0.99960605     0.05000
C2017       C  0.90000044  0.92407062  0.95965740    -0.07300
C2018       C  0.86424401  0.88835517  0.95202253    -0.08100
C2019       C  0.85491661  0.85458379  0.98071708    -0.02600
C2020       C  0.87968603  0.85776595  0.52206517     0.04200
N2021       N  0.86952323  0.82466993  0.55417079     0.66700
H2022       H  0.93117868  0.89689364  0.56519737     0.15600
H2023       H  0.84447840  0.88653821  0.92224937     0.15300
N2024       N  0.90991414  0.95743421  0.92796920     0.74400
O2025       O  0.88250753  0.80176764  0.54379746    -0.39100
O2026       O  0.84147978  0.81388939  0.58570909    -0.39000
O2027       O  0.94381457  0.97628254  0.90732917    -0.39700
O2028       O  0.88437506  0.96749186  0.91949159    -0.39800
C2029       C  0.60034933  0.51741630  0.54128908    -0.12000
C2030       C  0.57394383  0.50378114  0.00122688     0.05000
C2031       C  0.58539161  0.99082818  0.95815129    -0.07300
C2032       C  0.61942240  0.98676222  0.95998450    -0.08100
C2033       C  0.64753168  0.50514333  0.49710946    -0.02600
C2034       C  0.63849065  0.52272035  0.53696742     0.04200
N2035       N  0.66809815  0.54727408  0.57203742     0.66700
H2036       H  0.59183020  0.52483891  0.57624618     0.15600
H2037       H  0.62555359  0.97193358  0.93003963     0.15300
N2038       N  0.56488440  0.98475654  0.91154209     0.74400
O2039       O  0.68892784  0.58362662  0.56261455    -0.39100
O2040       O  0.66814895  0.53459095  0.61573718    -0.39000
O2041       O  0.54431396  0.00076076  0.90265460    -0.39700
O2042       O  0.57377387  0.97005570  0.87544954    -0.39800
C2043       C  0.88563882  0.53656294  0.54387699    -0.12000
C2044       C  0.85093947  0.50213096  0.52967228     0.05000
C2045       C  0.85053575  0.96584447  0.03522244    -0.07300
C2046       C  0.88644912  0.96664947  0.04147479    -0.08100
C2047       C  0.92298093  0.50186892  0.03757185    -0.02600
C2048       C  0.92108906  0.53569998  0.55243004     0.04200
N2049       N  0.95067912  0.56472157  0.58428983     0.66700
H2050       H  0.88481569  0.56342139  0.54995044     0.15600
H2051       H  0.88415215  0.93931995  0.05213639     0.15300
N2052       N  0.81463934  0.92871514  0.03779162     0.74400
O2053       O  0.95034639  0.59672972  0.09130975    -0.39100
O2054       O  0.97359510  0.55663387  0.60826670    -0.39000
O2055       O  0.80298142  0.90752447  0.99903243    -0.39700
O2056       O  0.79986757  0.91122465  0.57567764    -0.39800
C2057       C  0.51100072  0.63031478  0.80275425    -0.12000
C2058       C  0.48836189  0.63905681  0.76913720     0.05000
C2059       C  0.96603802  0.61076414  0.73293287    -0.07300
C2060       C  0.97044018  0.57778723  0.72623801    -0.08100
C2061       C  0.49434632  0.56990500  0.75702998    -0.02600
C2062       C  0.51249800  0.59511496  0.79811043     0.04200
N2063       N  0.53387441  0.58576028  0.83381610     0.66700
H2064       H  0.52721736  0.65059751  0.83272001     0.15600
H2065       H  0.95567128  0.55878554  0.69496752     0.15300
N2066       N  0.94199712  0.61736127  0.69798902     0.74400
O2067       O  0.57115723  0.60527989  0.83249544    -0.39100
O2068       O  0.51701075  0.55236678  0.85507290    -0.39000
O2069       O  0.95751449  0.64794112  0.67062691    -0.39700
O2070       O  0.90774501  0.58958102  0.68765018    -0.39800
C2071       C  0.52217496  0.87869269  0.73689052    -0.12000
C2072       C  0.48988546  0.84580883  0.75909564     0.05000
C2073       C  0.96335917  0.85164119  0.78878905    -0.07300
C2074       C  0.96901728  0.88992989  0.79224015    -0.08100
C2075       C  0.50276558  0.92337388  0.77092104    -0.02600
C2076       C  0.53375605  0.91525832  0.75811389     0.04200
N2077       N  0.56336665  0.92259394  0.79521143     0.66700
H2078       H  0.54509621  0.87466173  0.71922599     0.15600
H2079       H  0.94698500  0.89347010  0.81193975     0.15300
N2080       N  0.93226308  0.82032072  0.81737663     0.74400
O2081       O  0.55115082  0.90482493  0.83703957    -0.39100
O2082       O  0.59677656  0.92868266  0.77999851    -0.39000
O2083       O  0.94051976  0.80854922  0.85743299    -0.39700
O2084       O  0.89833749  0.80012165  0.79834626    -0.39800
C2085       C  0.97318748  0.62136634  0.97415430    -0.12000
C2086       C  0.00016627  0.65202520  0.00424080     0.05000
C2087       C  0.52851796  0.64755667  0.52821334    -0.07300
C2088       C  0.52631420  0.61116040  0.02943088    -0.08100
C2089       C  0.49946282  0.57917705  0.00004357    -0.02600
C2090       C  0.97374013  0.58592211  0.97059653     0.04200
N2091       N  0.94730028  0.55798314  0.93554415     0.66700
H2092       H  0.95186663  0.62519028  0.95225024     0.15600
H2093       H  0.54414931  0.60750559  0.05697770     0.15300
N2094       N  0.55939017  0.67924358  0.55560490     0.74400
O2095       O  0.95840602  0.56221019  0.38928399    -0.39100
O2096       O  0.91063719  0.54422617  0.94265432    -0.39000
O2097       O  0.55289666  0.68571039  0.60019514    -0.39700
O2098       O  0.59433185  0.69581911  0.03799723    -0.39800
C2099       C  0.97659628  0.86059874  0.97580833    -0.12000
C2100       C  0.99226952  0.85248154  0.01803042     0.05000
C2101       C  0.51212232  0.88232440  0.55256008    -0.07300
C2102       C  0.51445645  0.91898903  0.54644461    -0.08100
C2103       C  0.49958242  0.92816208  0.00427682    -0.02600
C2104       C  0.98124114  0.89801197  0.96754624     0.04200
N2105       N  0.96682575  0.90418944  0.92139177     0.66700
H2106       H  0.96224060  0.83810285  0.94750190     0.15600
H2107       H  0.52756509  0.94073221  0.57537160     0.15300
N2108       N  0.52905511  0.87533125  0.59594159     0.74400
O2109       O  0.99185158  0.92423299  0.88777770    -0.39100
O2110       O  0.93201914  0.87715325  0.40764326    -0.39000
O2111       O  0.56527428  0.88893925  0.09978574    -0.39700
O2112       O  0.50799976  0.86159182  0.63511688    -0.39800
loop_ 
_geom_bond_atom_site_label_1 
_geom_bond_atom_site_label_2 
_geom_bond_distance 
_geom_bond_site_symmetry_2 
_ccdc_geom_bond_type 
O1            V9   1.914       .  S
O1         C1067   1.265       .  A
O2          V273   1.908       .  S
O2         C1068   1.263       .  A
O3            V9   1.911       .  S
O3          C277   1.269       .  A
O4          V273   1.920       .  S
O4           C14   1.271       .  A
O5          V274   1.895       .  S
O5         C1334   1.260   1_455  A
O6           V10   1.882       .  S
O6         C1069   1.258   1_455  A
O7           V10   1.927       .  S
O7           C12   1.273   1_455  A
O8          V274   1.927       .  S
O8           C11   1.272   1_455  A
V9          O266   1.905   1_554  S
V9          O268   1.919       .  S
V9         V1330   2.086       .  T
V10         O269   1.893       .  S
V10         O272   1.924       .  S
V10        V1329   2.086   1_455  T
C11        O1057   1.266       .  A
C11          C28   1.497       .  S
C12        O1058   1.263       .  A
C12          C27   1.492       .  S
C13         O267   1.269       .  A
C13        O1062   1.258       .  A
C13         C238   1.473       .  S
C14        O1325   1.259       .  A
C14         C252   1.478       .  S
O15          V23   1.896       .  S
O15        C1081   1.261       .  A
O16          V23   1.905       .  S
O16        C1082   1.265       .  A
O17          V23   1.925       .  S
O17        C1083   1.272       .  A
O18          V23   1.928       .  S
O18        C1084   1.272       .  A
O19          V24   1.914       .  S
O19          C28   1.266   1_455  A
O20          V24   1.910       .  S
O20          C27   1.264   1_455  A
O21          V24   1.922       .  S
O21          C26   1.269   1_455  A
O22          V24   1.903       .  S
O22          C25   1.268   1_455  A
V23        V1080   2.084       .  T
V24        V1079   2.084   1_455  T
C25        O1071   1.261       .  A
C25         C224   1.480       .  S
C26        O1072   1.265       .  A
C26         C210   1.493       .  S
C27        O1073   1.272       .  A
C28        O1074   1.272       .  A
C29         C168   1.510       .  S
C29        C1086   1.424       .  A
C29         C562   1.461       .  A
C30         C255   1.524       .  S
C30        C1085   1.424       .  A
C30         C559   1.423   1_655  A
C31         C182   1.497       .  S
C31          C32   1.426       .  A
C31         C558   1.423   1_445  A
C32         C154   1.532       .  S
C32          C33   1.449   1_455  A
C33         C241   1.530       .  S
C33        C1090   1.464       .  A
C34         C199   1.561       .  S
C34         C557   1.461   1_545  A
C34        C1089   1.463       .  A
C35          C98   1.585       .  S
C35          C36   1.482   1_545  A
C35          C40   1.444   1_455  A
C36         C126   1.491   1_565  S
C36         C565   1.457       .  A
C37         C227   1.578       .  S
C37         C564   1.459       .  A
C37        C1094   1.440   1_455  A
C38         C112   1.509       .  S
C38        C1093   1.440       .  A
C38         C567   1.424       .  A
C39         C143   1.504       .  S
C39         C566   1.423       .  A
C39        C1096   1.427   1_565  A
C40         C213   1.517       .  S
C40        C1095   1.428   1_545  A
O41          V49   1.918       .  S
O41         C579   1.269       .  A
O42         V313   1.919       .  S
O42         C580   1.267       .  A
O43          V49   1.895       .  S
O43         C581   1.264       .  A
O44         V313   1.902       .  S
O44         C846   1.263       .  A
O45         V314   1.903   1_556  S
O45          C54   1.265       .  A
O46          V50   1.902       .  S
O46         C317   1.265       .  A
O47          V50   1.923       .  S
O47          C52   1.270       .  A
O48         V314   1.913       .  S
O48          C51   1.267       .  A
V49         O306   1.921   1_554  S
V49         O308   1.903   1_554  S
V49         V842   2.086       .  T
V50         O309   1.903       .  S
V50         O312   1.912       .  S
V50         V841   2.086   1_545  T
C51         O569   1.268   1_545  A
C51          C66   1.488       .  S
C52         O570   1.268   1_545  A
C52          C65   1.496       .  S
C53         O571   1.263   1_545  A
C53         O310   1.265       .  A
C53         C196   1.484       .  S
C54         O836   1.263   1_545  A
C54         C185   1.472       .  S
O55          V63   1.923       .  S
O55         C593   1.270       .  A
O56          V63   1.917       .  S
O56         C594   1.267       .  A
O57          V63   1.897       .  S
O57         C595   1.262       .  A
O58          V63   1.888       .  S
O58         C596   1.261       .  A
O59          V64   1.894       .  S
O59          C68   1.261       .  A
O60          V64   1.901       .  S
O60          C67   1.264       .  A
O61          V64   1.919       .  S
O61          C66   1.269       .  A
O62          V64   1.918       .  S
O62          C65   1.268       .  A
V63         V592   2.088       .  T
V64         V591   2.088   1_545  T
C65         O583   1.270   1_545  A
C66         O584   1.267   1_545  A
C67         O585   1.262   1_545  A
C67         C140   1.467   1_545  S
C68         O586   1.261   1_545  A
C68         C129   1.458       .  S
O69          V77   1.920   1_554  S
O69          C79   1.270       .  A
O70         V341   1.923       .  S
O70          C80   1.271       .  A
O71          V77   1.908       .  S
O71         C345   1.264       .  A
O72         V341   1.908       .  S
O72          C82   1.264       .  A
O73         V342   1.913       .  S
O73         C346   1.269       .  A
O74          V78   1.916       .  S
O74          C81   1.268       .  A
O75          V78   1.916       .  S
O75          C80   1.266       .  A
O76         V342   1.907   1_554  S
O76          C79   1.264       .  A
V77         O334   1.923       .  S
V77         O336   1.909       .  S
V77         V342   2.085       .  T
V78         O337   1.915       .  S
V78         O340   1.907       .  S
V78         V341   2.085       .  T
C79          C95   1.485       .  S
C80          C96   1.494       .  S
C81         O335   1.264       .  A
C81         C157   1.486       .  S
C82         O337   1.270       .  A
C82         C171   1.491       .  S
O83          V91   1.900       .  S
O83          C93   1.267       .  A
O84          V91   1.894       .  S
O84          C94   1.268       .  A
O85          V91   1.907       .  S
O85          C95   1.264       .  A
O86          V91   1.913       .  S
O86          C96   1.265       .  A
O87          V92   1.926       .  S
O87          C96   1.271       .  A
O88          V92   1.920       .  S
O88          C95   1.270       .  A
O89          V92   1.891       .  S
O89          C94   1.257       .  A
O90          V92   1.881       .  S
O90          C93   1.260       .  A
V91          V92   2.085       .  T
C93         C101   1.482       .  S
C94         C115   1.472       .  S
C97          C98   1.400       .  A
C97         C102   1.383       .  A
C97         H104   1.135       .  S
C98          C99   1.451       .  A
C99         C100   1.410       .  A
C99         N106   1.432       .  S
C100        C101   1.391       .  A
C100        H105   1.090       .  S
C101        C102   1.402       .  A
C102        N103   1.428       .  S
N103        O107   1.260       .  A
N103        O108   1.261       .  A
N106        O110   1.255       .  A
N106        O109   1.264       .  A
C111        C112   1.407       .  A
C111        C116   1.409       .  A
C111        H118   1.082       .  S
C112        C113   1.416       .  A
C113        C114   1.380       .  A
C113        N120   1.417       .  S
C114        C115   1.388       .  A
C114        H119   1.086       .  S
C115        C116   1.423       .  A
C116        N117   1.438       .  S
N117        O121   1.262       .  A
N117        O122   1.261       .  A
N120        O124   1.254       .  A
N120        O123   1.262       .  A
C125        C126   1.413       .  A
C125        C130   1.406       .  A
C125        H132   1.081       .  S
C126        C655   1.429   1_545  A
C127        C128   1.401       .  A
C127        C654   1.430       .  A
C127        N134   1.439       .  S
C128        C657   1.388       .  A
C128        H133   1.083       .  S
C129        C130   1.398       .  A
C129        C656   1.388   1_545  A
C130        N131   1.431       .  S
N131        O135   1.261       .  A
N131        O664   1.262       .  A
N134        O138   1.261       .  A
N134        O665   1.260       .  A
O136        N659   1.262       .  A
O137        N662   1.260       .  A
C139        C140   1.400       .  A
C139        C144   1.405       .  A
C139        H146   1.084       .  S
C140        C669   1.403   1_565  A
C141        C142   1.395       .  A
C141        C668   1.403       .  A
C141        N148   1.428       .  S
C142        C671   1.402       .  A
C142        H147   1.075       .  S
C143        C144   1.419       .  A
C143        C670   1.402   1_565  A
C144        N145   1.433       .  S
N145        O149   1.262       .  A
N145        O150   1.262       .  A
N148        O152   1.262       .  A
N148        O151   1.262       .  A
C153        C154   1.409       .  A
C153        C158   1.416       .  A
C153        H160   1.067       .  S
C154        C419   1.427       .  A
C155        C156   1.412       .  A
C155        C418   1.428   1_554  A
C155        N162   1.437       .  S
C156        C421   1.393   1_554  A
C156        H161   1.084       .  S
C157        C158   1.399       .  A
C157        C420   1.392       .  A
C158        N159   1.428       .  S
N159        O163   1.262       .  A
N159        O164   1.262       .  A
N162        O166   1.258       .  A
N162        O165   1.263       .  A
C167        C172   1.407       .  A
C167        C432   1.412       .  A
C167        H174   1.081       .  S
C168        C169   1.409       .  A
C168        C431   1.412       .  A
C169        C170   1.413       .  A
C169        N176   1.430       .  S
C170        C171   1.404       .  A
C170        H175   1.083       .  S
C171        C436   1.408       .  A
C172        C435   1.409   1_554  A
C172        N173   1.428       .  S
N173        O177   1.262       .  A
N173        O178   1.262       .  A
N176        O180   1.259       .  A
N176        O179   1.264       .  A
C181        C186   1.393       .  A
C181        C446   1.397       .  A
C181        H188   1.072       .  S
C182        C445   1.397       .  A
C182        C711   1.405   1_545  A
C183        C184   1.411       .  A
C183        C710   1.406       .  A
C183        N190   1.430       .  S
C184        C977   1.398       .  A
C184        H189   1.080       .  S
C185        C186   1.400   1_556  A
C185        C976   1.398   1_545  A
C186        N187   1.426       .  S
N187        O191   1.262       .  A
N187        O192   1.259       .  A
N190        O194   1.252       .  A
N190        O193   1.262       .  A
C195        C196   1.405       .  A
C195        C200   1.414       .  A
C195        H202   1.083       .  S
C196        C989   1.406   1_545  A
C197        C198   1.391       .  A
C197        C988   1.406       .  A
C197        N204   1.428       .  S
C198        C727   1.408       .  A
C198        H203   1.067       .  S
C199        C726   1.408   1_545  A
C199        C464   1.422       .  A
C200        C463   1.422       .  A
C200        N201   1.429       .  S
N201        O469   1.262       .  A
N201        O206   1.259       .  A
N204        O472   1.262       .  A
N204        O207   1.261       .  A
O205        N465   1.262       .  A
O208        N468   1.262       .  A
C209        C210   1.413   1_455  A
C209        C214   1.417       .  A
C209        H216   1.083       .  S
C210       C1267   1.411       .  A
C211        C212   1.398       .  A
C211       C1266   1.411       .  A
C211        N218   1.430       .  S
C212       C1269   1.408       .  A
C212        H217   1.076       .  S
C213        C214   1.409   1_655  A
C213       C1268   1.407       .  A
C214        N215   1.425       .  S
N215        O219   1.257       .  A
N215        O220   1.262       .  A
N218        O222   1.262       .  A
N218        O221   1.262       .  A
C223        C224   1.397   1_455  A
C223        C228   1.394       .  A
C223        H230   1.084       .  S
C224       C1281   1.410       .  A
C225        C226   1.408       .  A
C225       C1280   1.410       .  A
C225        N232   1.429       .  S
C226       C1283   1.420       .  A
C226        H231   1.069       .  S
C227        C228   1.432       .  A
C227       C1282   1.420   1_455  A
C228        N229   1.436       .  S
N229        O233   1.264       .  A
N229        O234   1.261       .  A
N232        O236   1.261       .  A
N232        O235   1.262       .  A
C237        C238   1.394       .  A
C237        C242   1.406       .  A
C237        H244   1.085       .  S
C238       C1559   1.402       .  A
C239       C1558   1.402   1_455  A
C239        C504   1.390       .  A
C239        N246   1.429       .  S
C240        C241   1.407   1_455  A
C240        C503   1.390       .  A
C240        H245   1.069       .  S
C241       C1298   1.428       .  A
C242       C1297   1.428       .  A
C242        N243   1.420       .  S
N243        O511   1.255       .  A
N243        O248   1.260       .  A
N246        O514   1.262       .  A
N246        O249   1.261       .  A
O247        N507   1.255       .  A
O250        N510   1.262       .  A
C251        C252   1.386       .  A
C251        C256   1.402       .  A
C251        H258   1.084       .  S
C252       C1573   1.406       .  A
C253        C254   1.405       .  A
C253       C1572   1.406   1_455  A
C253        N260   1.421       .  S
C254        C519   1.397   1_455  A
C254        H259   1.074       .  S
C255        C518   1.397   1_655  A
C255       C1312   1.424       .  A
C256       C1311   1.424       .  A
C256        N257   1.418       .  S
N257        O261   1.256       .  A
N257        O526   1.260       .  A
N260        O264   1.258       .  A
N260        O527   1.262       .  A
O262        N521   1.261       .  A
O263        N524   1.262       .  A
O265        V273   1.915       .  S
O265       C1331   1.266       .  A
O266       C1332   1.263       .  A
O267        V273   1.910       .  S
O268        C278   1.271       .  A
O269       C1070   1.259   1_455  A
O270        V274   1.882       .  S
O270       C1333   1.258   1_455  A
O271        V274   1.930   1_556  S
O271        C276   1.273   1_455  A
O272        C275   1.271   1_455  A
V273       V1066   2.086       .  T
V274       V1065   2.086   1_455  T
C275       O1321   1.266       .  A
C275        C292   1.494       .  S
C276       O1322   1.263       .  A
C276        C291   1.491       .  S
C277       O1326   1.258       .  A
C277        C502   1.473       .  S
C278       O1061   1.259       .  A
C278        C516   1.480       .  S
O279        V287   1.895       .  S
O279       C1345   1.260       .  A
O280        V287   1.904       .  S
O280       C1346   1.265       .  A
O281        V287   1.922       .  S
O281       C1347   1.272       .  A
O282        V287   1.926       .  S
O282       C1348   1.271       .  A
O283        V288   1.914       .  S
O283        C292   1.266   1_455  A
O284        V288   1.912       .  S
O284        C291   1.264   1_455  A
O285        V288   1.922       .  S
O285        C290   1.269   1_455  A
O286        V288   1.904       .  S
O286        C289   1.268   1_455  A
V287       V1344   2.085       .  T
V288       V1343   2.084   1_455  T
C289       O1335   1.261       .  A
C289        C488   1.481       .  S
C290       O1336   1.265       .  A
C290        C474   1.493       .  S
C291       O1337   1.272       .  A
C292       O1338   1.271       .  A
C293        C432   1.510       .  S
C293       C1350   1.425       .  A
C293        C826   1.461       .  A
C294        C519   1.524       .  S
C294       C1349   1.425       .  A
C294        C823   1.422   1_655  A
C295        C446   1.497       .  S
C295        C822   1.422   1_445  A
C295        C296   1.424       .  A
C296        C418   1.530   1_554  S
C296        C297   1.448   1_455  A
C297        C505   1.529   1_554  S
C297       C1354   1.463       .  A
C298        C463   1.562       .  S
C298        C821   1.461   1_545  A
C298       C1353   1.463       .  A
C299        C362   1.583       .  S
C299        C300   1.481       .  A
C299        C304   1.443   1_455  A
C300        C390   1.491       .  S
C300        C829   1.457   1_545  A
C301        C491   1.578       .  S
C301        C828   1.458       .  A
C301       C1358   1.440   1_455  A
C302        C376   1.508       .  S
C302       C1357   1.439       .  A
C302        C831   1.424       .  A
C303        C407   1.504       .  S
C303        C830   1.424       .  A
C303       C1360   1.427   1_565  A
C304        C477   1.518       .  S
C304       C1359   1.427   1_545  A
O305        V313   1.915       .  S
O305        C843   1.268       .  A
O306        C844   1.268       .  A
O307        V313   1.891       .  S
O307        C845   1.263       .  A
O308        C582   1.264       .  A
O309        C318   1.265       .  A
O310        V314   1.903       .  S
O311        V314   1.924   1_556  S
O311        C316   1.270       .  A
O312        C315   1.266       .  A
V313        V578   2.085       .  T
V314        V577   2.086   1_545  T
C315        O833   1.269   1_545  A
C315        C330   1.488       .  S
C316        O834   1.268   1_545  A
C316        C329   1.495       .  S
C317        O835   1.263   1_545  A
C317        C460   1.483       .  S
C318        O572   1.263   1_545  A
C318        C449   1.473       .  S
O319        V327   1.922       .  S
O319        C857   1.270       .  A
O320        V327   1.914       .  S
O320        C858   1.267       .  A
O321        V327   1.897       .  S
O321        C859   1.262       .  A
O322        V327   1.887       .  S
O322        C860   1.261       .  A
O323        V328   1.894       .  S
O323        C332   1.261       .  A
O324        V328   1.900       .  S
O324        C331   1.264       .  A
O325        V328   1.919       .  S
O325        C330   1.269       .  A
O326        V328   1.918       .  S
O326        C329   1.268       .  A
V327        V856   2.088       .  T
V328        V855   2.088   1_545  T
C329        O847   1.270   1_545  A
C330        O848   1.267   1_545  A
C331        O849   1.262   1_545  A
C331        C404   1.468   1_545  S
C332        O850   1.262   1_545  A
C332        C393   1.459       .  S
O333        V341   1.922       .  S
O333        C343   1.270       .  A
O334        C344   1.270       .  A
O335        V341   1.908       .  S
O336        C346   1.264       .  A
O338        V342   1.915       .  S
O338        C345   1.267       .  A
O339        V342   1.915       .  S
O339        C344   1.266       .  A
O340        C343   1.264       .  A
C343        C359   1.486       .  S
C344        C360   1.493       .  S
C345        C421   1.485       .  S
C346        C435   1.491       .  S
O347        V355   1.900       .  S
O347        C357   1.266       .  A
O348        V355   1.894       .  S
O348        C358   1.268       .  A
O349        V355   1.910       .  S
O349        C359   1.264       .  A
O350        V355   1.914       .  S
O350        C360   1.266       .  A
O351        V356   1.924       .  S
O351        C360   1.271       .  A
O352        V356   1.919       .  S
O352        C359   1.270       .  A
O353        V356   1.890       .  S
O353        C358   1.257       .  A
O354        V356   1.880       .  S
O354        C357   1.260       .  A
V355        V356   2.085       .  T
C357        C365   1.480       .  S
C358        C379   1.471       .  S
C361        C362   1.405       .  A
C361        C366   1.389       .  A
C361        H368   1.078       .  S
C362        C363   1.448       .  A
C363        C364   1.409       .  A
C363        N370   1.433       .  S
C364        C365   1.391       .  A
C364        H369   1.085       .  S
C365        C366   1.400       .  A
C366        N367   1.429       .  S
N367        O371   1.260       .  A
N367        O372   1.261       .  A
N370        O374   1.255       .  A
N370        O373   1.264       .  A
C375        C376   1.406       .  A
C375        C380   1.408       .  A
C375        H382   1.082       .  S
C376        C377   1.415       .  A
C377        C378   1.382       .  A
C377        N384   1.417       .  S
C378        C379   1.388       .  A
C378        H383   1.086       .  S
C379        C380   1.422       .  A
C380        N381   1.437       .  S
N381        O385   1.262       .  A
N381        O386   1.261       .  A
N384        O388   1.254       .  A
N384        O387   1.262       .  A
C389        C390   1.413       .  A
C389        C394   1.406       .  A
C389        H396   1.082       .  S
C390        C919   1.430   1_545  A
C391        C918   1.430       .  A
C391        C392   1.401       .  A
C391        N398   1.440       .  S
C392        C921   1.388       .  A
C392        H397   1.083       .  S
C393        C920   1.389   1_545  A
C393        C394   1.399       .  A
C394        N395   1.431       .  S
N395        O399   1.261       .  A
N395        O928   1.261       .  A
N398        O402   1.261       .  A
N398        O929   1.260       .  A
O400        N923   1.261       .  A
O401        N926   1.260       .  A
C403        C404   1.400       .  A
C403        C408   1.406       .  A
C403        H410   1.084       .  S
C404        C933   1.403   1_565  A
C405        C932   1.403       .  A
C405        C406   1.395       .  A
C405        N412   1.428       .  S
C406        C935   1.402       .  A
C406        H411   1.075       .  S
C407        C934   1.402   1_565  A
C407        C408   1.420       .  A
C408        N409   1.433       .  S
N409        O413   1.262       .  A
N409        O414   1.262       .  A
N412        O416   1.262       .  A
N412        O415   1.262       .  A
C417        C418   1.409       .  A
C417        C422   1.415       .  A
C417        H424   1.069       .  S
C419        C420   1.412       .  A
C419        N426   1.435       .  S
C420        H425   1.084       .  S
C421        C422   1.399       .  A
C422        N423   1.428       .  S
N423        O427   1.261       .  A
N423        O428   1.262       .  A
N426        O430   1.257       .  A
N426        O429   1.263       .  A
C431        C436   1.408       .  A
C431        H438   1.081       .  S
C432        C433   1.410   1_554  A
C433        C434   1.413       .  A
C433        N440   1.431       .  S
C434        C435   1.404       .  A
C434        H439   1.083       .  S
C436        N437   1.428       .  S
N437        O441   1.262       .  A
N437        O442   1.262       .  A
N440        O444   1.259       .  A
N440        O443   1.264       .  A
C445        C450   1.393       .  A
C445        H452   1.072       .  S
C446        C975   1.406   1_544  A
C447        C974   1.406   1_556  A
C447        C448   1.411       .  A
C447        N454   1.431       .  S
C448        C713   1.398       .  A
C448        H453   1.080       .  S
C449        C712   1.397   1_545  A
C449        C450   1.400       .  A
C450        N451   1.426       .  S
N451        O455   1.262       .  A
N451        O456   1.259       .  A
N454        O458   1.252       .  A
N454        O457   1.262       .  A
C459        C460   1.405       .  A
C459        C464   1.414       .  A
C459        H466   1.083       .  S
C460        C725   1.405   1_545  A
C461        C724   1.405       .  A
C461        C462   1.393       .  A
C461        N468   1.429       .  S
C462        C991   1.410       .  A
C462        H467   1.067       .  S
C463        C990   1.409   1_545  A
C464        N465   1.429       .  S
N465        O470   1.259       .  A
N468        O471   1.261       .  A
C473        C474   1.412   1_455  A
C473        C478   1.417       .  A
C473        H480   1.083       .  S
C474       C1531   1.412       .  A
C475       C1530   1.412       .  A
C475        C476   1.399       .  A
C475        N482   1.432       .  S
C476       C1533   1.408       .  A
C476        H481   1.076       .  S
C477       C1532   1.408       .  A
C477        C478   1.409   1_655  A
C478        N479   1.426       .  S
N479        O483   1.257       .  A
N479        O484   1.263       .  A
N482        O486   1.262       .  A
N482        O485   1.262       .  A
C487        C488   1.397   1_455  A
C487        C492   1.394       .  A
C487        H494   1.084       .  S
C488       C1545   1.411       .  A
C489       C1544   1.411       .  A
C489        C490   1.409       .  A
C489        N496   1.429       .  S
C490       C1547   1.420       .  A
C490        H495   1.069       .  S
C491       C1546   1.420   1_455  A
C491        C492   1.432       .  A
C492        N493   1.436       .  S
N493        O497   1.264       .  A
N493        O498   1.261       .  A
N496        O500   1.261       .  A
N496        O499   1.262       .  A
C501        C502   1.395   1_556  A
C501        C506   1.407       .  A
C501        H508   1.085       .  S
C502       C1295   1.402       .  A
C503       C1294   1.402   1_455  A
C503        N510   1.429       .  S
C504        C505   1.407   1_454  A
C504        H509   1.067       .  S
C505       C1562   1.428       .  A
C506       C1561   1.428       .  A
C506        N507   1.420       .  S
N507        O512   1.260       .  A
N510        O513   1.260       .  A
C515        C516   1.387   1_556  A
C515        C520   1.403       .  A
C515        H522   1.084       .  S
C516       C1309   1.406       .  A
C517       C1308   1.406   1_455  A
C517        C518   1.405       .  A
C517        N524   1.421       .  S
C518        H523   1.074       .  S
C519       C1576   1.424   1_554  A
C520       C1575   1.424   1_556  A
C520        N521   1.420       .  S
N521        O525   1.256       .  A
N524        O528   1.258       .  A
O529        V537   1.914       .  S
O529       C1595   1.265       .  A
O530        V801   1.907       .  S
O530       C1596   1.263       .  A
O531        V537   1.911       .  S
O531        C805   1.269       .  A
O532        V801   1.920       .  S
O532        C542   1.271       .  A
O533        V802   1.893       .  S
O533       C1862   1.259   1_455  A
O534        V538   1.881       .  S
O534       C1597   1.258   1_455  A
O535        V538   1.929       .  S
O535        C540   1.273   1_455  A
O536        V802   1.926       .  S
O536        C539   1.272   1_455  A
V537        O794   1.906   1_554  S
V537        O796   1.921       .  S
V537       V1858   2.086       .  T
V538        O797   1.893       .  S
V538        O800   1.925       .  S
V538       V1857   2.086   1_455  T
C539       O1585   1.265       .  A
C539        C556   1.495       .  S
C540       O1586   1.263       .  A
C540        C555   1.492       .  S
C541        O795   1.269       .  A
C541       O1590   1.258       .  A
C541        C766   1.473       .  S
C542       O1853   1.259       .  A
C542        C780   1.479       .  S
O543        V551   1.897       .  S
O543       C1609   1.261       .  A
O544        V551   1.907       .  S
O544       C1610   1.266       .  A
O545        V551   1.924       .  S
O545       C1611   1.272       .  A
O546        V551   1.927       .  S
O546       C1612   1.272       .  A
O547        V552   1.914       .  S
O547        C556   1.265   1_455  A
O548        V552   1.911       .  S
O548        C555   1.264   1_455  A
O549        V552   1.923       .  S
O549        C554   1.270   1_455  A
O550        V552   1.905       .  S
O550        C553   1.268   1_455  A
V551       V1608   2.084       .  T
V552       V1607   2.084   1_455  T
C553       O1599   1.260       .  A
C553        C752   1.480       .  S
C554       O1600   1.265       .  A
C554        C738   1.494       .  S
C555       O1601   1.272       .  A
C556       O1602   1.272       .  A
C557        C696   1.509       .  S
C557       C1614   1.423       .  A
C558        C783   1.524       .  S
C558       C1613   1.423       .  A
C559        C710   1.498       .  S
C559        C560   1.426       .  A
C560        C682   1.528       .  S
C560        C561   1.448   1_455  A
C561        C769   1.531       .  S
C561       C1618   1.463       .  A
C562        C727   1.561       .  S
C562       C1617   1.463       .  A
C563        C626   1.583       .  S
C563        C564   1.482       .  A
C563        C568   1.445   1_455  A
C564        C654   1.494       .  S
C565        C755   1.578       .  S
C565       C1622   1.439   1_455  A
C566        C640   1.508       .  S
C566       C1621   1.439       .  A
C567        C671   1.503       .  S
C567       C1624   1.427       .  A
C568        C741   1.520       .  S
C568       C1623   1.427       .  A
O569        V577   1.916       .  S
O570        V841   1.920       .  S
O571        V577   1.891       .  S
O572        V841   1.901       .  S
O573        V842   1.902   1_556  S
O573        C582   1.264       .  A
O574        V578   1.905       .  S
O574        C845   1.265       .  A
O575        V578   1.925       .  S
O575        C580   1.270       .  A
O576        V842   1.912       .  S
O576        C579   1.267       .  A
V577        O834   1.919   1_554  S
V577        O836   1.900   1_554  S
V578        O837   1.906       .  S
V578        O840   1.914       .  S
C579        C594   1.489       .  S
C580        C593   1.496       .  S
C581        O838   1.265       .  A
C581        C724   1.484       .  S
C582        C713   1.474       .  S
O583        V591   1.922       .  S
O584        V591   1.915       .  S
O585        V591   1.896       .  S
O586        V591   1.887       .  S
O587        V592   1.895       .  S
O587        C596   1.261       .  A
O588        V592   1.902       .  S
O588        C595   1.264       .  A
O589        V592   1.918       .  S
O589        C594   1.269       .  A
O590        V592   1.917       .  S
O590        C593   1.268       .  A
C595        C668   1.468       .  S
C596        C657   1.459       .  S
O597        V605   1.921   1_554  S
O597        C607   1.270       .  A
O598        V869   1.923       .  S
O598        C608   1.271       .  A
O599        V605   1.907       .  S
O599        C873   1.264       .  A
O600        V869   1.907       .  S
O600        C610   1.263       .  A
O601        V870   1.914       .  S
O601        C874   1.269       .  A
O602        V606   1.915       .  S
O602        C609   1.267       .  A
O603        V606   1.916       .  S
O603        C608   1.266       .  A
O604        V870   1.907   1_554  S
O604        C607   1.264       .  A
V605        O862   1.923       .  S
V605        O864   1.908       .  S
V605        V870   2.085       .  T
V606        O865   1.914       .  S
V606        O868   1.907       .  S
V606        V869   2.086       .  T
C607        C623   1.486       .  S
C608        C624   1.494       .  S
C609        O863   1.264       .  A
C609        C685   1.484       .  S
C610        O865   1.269       .  A
C610        C699   1.490       .  S
O611        V619   1.899       .  S
O611        C621   1.266       .  A
O612        V619   1.893       .  S
O612        C622   1.268       .  A
O613        V619   1.909       .  S
O613        C623   1.264       .  A
O614        V619   1.913       .  S
O614        C624   1.266       .  A
O615        V620   1.925       .  S
O615        C624   1.271       .  A
O616        V620   1.920       .  S
O616        C623   1.270       .  A
O617        V620   1.890       .  S
O617        C622   1.257       .  A
O618        V620   1.882       .  S
O618        C621   1.260       .  A
V619        V620   2.085       .  T
C621        C629   1.480       .  S
C622        C643   1.471       .  S
C625        C626   1.405       .  A
C625        C630   1.389       .  A
C625        H632   1.088       .  S
C626        C627   1.448       .  A
C627        C628   1.408       .  A
C627        N634   1.432       .  S
C628        C629   1.391       .  A
C628        H633   1.086       .  S
C629        C630   1.401       .  A
C630        N631   1.428       .  S
N631        O635   1.260       .  A
N631        O636   1.261       .  A
N634        O638   1.255       .  A
N634        O637   1.264       .  A
C639        C640   1.406       .  A
C639        C644   1.408       .  A
C639        H646   1.082       .  S
C640        C641   1.416       .  A
C641        C642   1.381       .  A
C641        N648   1.417       .  S
C642        C643   1.388       .  A
C642        H647   1.086       .  S
C643        C644   1.422       .  A
C644        N645   1.437       .  S
N645        O649   1.262       .  A
N645        O650   1.261       .  A
N648        O652   1.254       .  A
N648        O651   1.262       .  A
C653        C654   1.414       .  A
C653        C658   1.407       .  A
C653        H660   1.082       .  S
C655        C656   1.401       .  A
C655        N662   1.440       .  S
C656        H661   1.082       .  S
C657        C658   1.399       .  A
C658        N659   1.431       .  S
N659        O663   1.260       .  A
N662        O666   1.261       .  A
C667        C668   1.401       .  A
C667        C672   1.405       .  A
C667        H674   1.084       .  S
C669        C670   1.396       .  A
C669        N676   1.428       .  S
C670        H675   1.075       .  S
C671        C672   1.418       .  A
C672        N673   1.432       .  S
N673        O677   1.262       .  A
N673        O678   1.262       .  A
N676        O680   1.262       .  A
N676        O679   1.262       .  A
C681        C682   1.409       .  A
C681        C686   1.415       .  A
C681        H688   1.069       .  S
C682        C947   1.426       .  A
C683        C946   1.428   1_554  A
C683        C684   1.412       .  A
C683        N690   1.436       .  S
C684        C949   1.392   1_554  A
C684        H689   1.084       .  S
C685        C948   1.392       .  A
C685        C686   1.398       .  A
C686        N687   1.428       .  S
N687        O691   1.261       .  A
N687        O692   1.262       .  A
N690        O694   1.258       .  A
N690        O693   1.263       .  A
C695        C960   1.412       .  A
C695        C700   1.408       .  A
C695        H702   1.081       .  S
C696        C959   1.412       .  A
C696        C697   1.409       .  A
C697        C698   1.413       .  A
C697        N704   1.430       .  S
C698        C699   1.404       .  A
C698        H703   1.083       .  S
C699        C964   1.408       .  A
C700        C963   1.408   1_554  A
C700        N701   1.428       .  S
N701        O705   1.262       .  A
N701        O706   1.262       .  A
N704        O708   1.259       .  A
N704        O707   1.264       .  A
C709        C974   1.398       .  A
C709        C714   1.394       .  A
C709        H716   1.072       .  S
C710        C973   1.398       .  A
C711        C712   1.410       .  A
C711        N718   1.430       .  S
C712        H717   1.080       .  S
C713        C714   1.400   1_556  A
C714        N715   1.426       .  S
N715        O719   1.262       .  A
N715        O720   1.259       .  A
N718        O722   1.252       .  A
N718        O721   1.262       .  A
C723        C724   1.405       .  A
C723        C728   1.413       .  A
C723        H730   1.083       .  S
C725        C726   1.390       .  A
C725        N732   1.429       .  S
C726        H731   1.066       .  S
C727        C992   1.422       .  A
C728        C991   1.422       .  A
C728        N729   1.430       .  S
N729        O997   1.262       .  A
N729        O734   1.259       .  A
N732       O1000   1.262       .  A
N732        O735   1.261       .  A
O733        N993   1.262       .  A
O736        N996   1.262       .  A
C737        C738   1.413   1_455  A
C737        C742   1.417       .  A
C737        H744   1.083       .  S
C738       C1795   1.413       .  A
C739       C1794   1.413       .  A
C739        C740   1.400       .  A
C739        N746   1.432       .  S
C740       C1797   1.408       .  A
C740        H745   1.075       .  S
C741       C1796   1.408       .  A
C741        C742   1.409   1_655  A
C742        N743   1.425       .  S
N743        O747   1.257       .  A
N743        O748   1.262       .  A
N746        O750   1.263       .  A
N746        O749   1.262       .  A
C751        C752   1.397   1_455  A
C751        C756   1.394       .  A
C751        H758   1.084       .  S
C752       C1809   1.410       .  A
C753       C1808   1.410       .  A
C753        C754   1.409       .  A
C753        N760   1.429       .  S
C754       C1811   1.420       .  A
C754        H759   1.069       .  S
C755       C1810   1.420   1_455  A
C755        C756   1.432       .  A
C756        N757   1.436       .  S
N757        O761   1.264       .  A
N757        O762   1.261       .  A
N760        O764   1.261       .  A
N760        O763   1.262       .  A
C765        C766   1.394       .  A
C765        C770   1.406       .  A
C765        H772   1.085       .  S
C766       C2087   1.403       .  A
C767       C2086   1.402       .  A
C767       C1032   1.391       .  A
C767        N774   1.429       .  S
C768       C1031   1.392       .  A
C768        C769   1.408   1_455  A
C768        H773   1.064       .  S
C769       C1826   1.429       .  A
C770       C1825   1.428       .  A
C770        N771   1.420       .  S
N771       O1039   1.255       .  A
N771        O776   1.260       .  A
N774       O1042   1.262       .  A
N774        O777   1.260       .  A
O775       N1035   1.255       .  A
O778       N1038   1.262       .  A
C779        C780   1.386       .  A
C779        C784   1.402       .  A
C779        H786   1.084       .  S
C780       C2101   1.406       .  A
C781       C2100   1.406   1_455  A
C781        C782   1.404       .  A
C781        N788   1.421       .  S
C782       C1047   1.397   1_455  A
C782        H787   1.074       .  S
C783       C1046   1.397   1_655  A
C783       C1840   1.426       .  A
C784       C1839   1.425       .  A
C784        N785   1.419       .  S
N785        O789   1.256       .  A
N785       O1054   1.261       .  A
N788        O792   1.258       .  A
N788       O1055   1.262       .  A
O790       N1049   1.260       .  A
O791       N1052   1.262       .  A
O793        V801   1.914       .  S
O793       C1859   1.265       .  A
O794       C1860   1.263       .  A
O795        V801   1.911       .  S
O796        C806   1.271       .  A
O797       C1598   1.259   1_455  A
O798        V802   1.882       .  S
O798       C1861   1.258   1_455  A
O799        V802   1.930   1_556  S
O799        C804   1.274   1_455  A
O800        C803   1.272   1_455  A
V801       V1594   2.086       .  T
V802       V1593   2.086   1_455  T
C803       O1849   1.266       .  A
C803        C820   1.495       .  S
C804       O1850   1.262       .  A
C804        C819   1.492       .  S
C805       O1854   1.257       .  A
C805       C1030   1.472       .  S
C806       O1589   1.259       .  A
C806       C1044   1.479       .  S
O807        V815   1.897       .  S
O807       C1873   1.261       .  A
O808        V815   1.907       .  S
O808       C1874   1.266       .  A
O809        V815   1.924       .  S
O809       C1875   1.272       .  A
O810        V815   1.927       .  S
O810       C1876   1.272       .  A
O811        V816   1.912       .  S
O811        C820   1.265   1_455  A
O812        V816   1.910       .  S
O812        C819   1.264   1_455  A
O813        V816   1.922       .  S
O813        C818   1.269   1_455  A
O814        V816   1.904       .  S
O814        C817   1.268   1_455  A
V815       V1872   2.084       .  T
V816       V1871   2.084   1_455  T
C817       O1863   1.261       .  A
C817       C1016   1.481       .  S
C818       O1864   1.265       .  A
C818       C1002   1.493       .  S
C819       O1865   1.273       .  A
C820       O1866   1.272       .  A
C821        C960   1.510       .  S
C821       C1878   1.425       .  A
C822       C1047   1.523       .  S
C822       C1877   1.425       .  A
C823        C974   1.497       .  S
C823        C824   1.424       .  A
C824        C946   1.530   1_554  S
C824        C825   1.448   1_455  A
C825       C1033   1.529       .  S
C825       C1882   1.464       .  A
C826        C991   1.562       .  S
C826       C1881   1.464       .  A
C827        C890   1.583       .  S
C827        C828   1.481       .  A
C827        C832   1.443   1_455  A
C828        C918   1.492       .  S
C829       C1019   1.578       .  S
C829       C1886   1.439   1_455  A
C830        C904   1.508       .  S
C830       C1885   1.439       .  A
C831        C935   1.504       .  S
C831       C1888   1.427       .  A
C832       C1005   1.516       .  S
C832       C1887   1.427       .  A
O833        V841   1.917       .  S
O835        V841   1.891       .  S
O837        C846   1.266       .  A
O838        V842   1.900       .  S
O839        V842   1.922   1_556  S
O839        C844   1.269       .  A
O840        C843   1.267       .  A
C843        C858   1.488       .  S
C844        C857   1.496       .  S
C845        C988   1.485       .  S
C846        C977   1.476       .  S
O847        V855   1.921       .  S
O848        V855   1.914       .  S
O849        V855   1.897       .  S
O850        V855   1.888       .  S
O851        V856   1.894       .  S
O851        C860   1.261       .  A
O852        V856   1.901       .  S
O852        C859   1.264       .  A
O853        V856   1.920       .  S
O853        C858   1.269       .  A
O854        V856   1.918       .  S
O854        C857   1.268       .  A
C859        C932   1.468       .  S
C860        C921   1.459       .  S
O861        V869   1.921       .  S
O861        C871   1.270       .  A
O862        C872   1.271       .  A
O863        V869   1.906       .  S
O864        C874   1.264       .  A
O866        V870   1.915       .  S
O866        C873   1.267       .  A
O867        V870   1.916       .  S
O867        C872   1.266       .  A
O868        C871   1.264       .  A
C871        C887   1.486       .  S
C872        C888   1.494       .  S
C873        C949   1.485       .  S
C874        C963   1.490       .  S
O875        V883   1.898       .  S
O875        C885   1.266       .  A
O876        V883   1.892       .  S
O876        C886   1.268       .  A
O877        V883   1.909       .  S
O877        C887   1.264       .  A
O878        V883   1.913       .  S
O878        C888   1.266       .  A
O879        V884   1.925       .  S
O879        C888   1.271       .  A
O880        V884   1.920       .  S
O880        C887   1.270       .  A
O881        V884   1.891       .  S
O881        C886   1.257       .  A
O882        V884   1.882       .  S
O882        C885   1.260       .  A
V883        V884   2.085       .  T
C885        C893   1.480       .  S
C886        C907   1.471       .  S
C889        C890   1.405       .  A
C889        C894   1.389       .  A
C889        H896   1.081       .  S
C890        C891   1.447       .  A
C891        C892   1.408       .  A
C891        N898   1.433       .  S
C892        C893   1.391       .  A
C892        H897   1.085       .  S
C893        C894   1.400       .  A
C894        N895   1.429       .  S
N895        O899   1.260       .  A
N895        O900   1.261       .  A
N898        O902   1.255       .  A
N898        O901   1.263       .  A
C903        C904   1.407       .  A
C903        C908   1.408       .  A
C903        H910   1.082       .  S
C904        C905   1.416       .  A
C905        C906   1.381       .  A
C905        N912   1.417       .  S
C906        C907   1.388       .  A
C906        H911   1.086       .  S
C907        C908   1.422       .  A
C908        N909   1.437       .  S
N909        O913   1.262       .  A
N909        O914   1.261       .  A
N912        O916   1.254       .  A
N912        O915   1.262       .  A
C917        C918   1.413       .  A
C917        C922   1.406       .  A
C917        H924   1.082       .  S
C919        C920   1.401       .  A
C919        N926   1.440       .  S
C920        H925   1.083       .  S
C921        C922   1.399       .  A
C922        N923   1.431       .  S
N923        O927   1.260       .  A
N926        O930   1.261       .  A
C931        C932   1.400       .  A
C931        C936   1.406       .  A
C931        H938   1.084       .  S
C933        C934   1.395       .  A
C933        N940   1.428       .  S
C934        H939   1.075       .  S
C935        C936   1.419       .  A
C936        N937   1.433       .  S
N937        O941   1.262       .  A
N937        O942   1.262       .  A
N940        O944   1.262       .  A
N940        O943   1.262       .  A
C945        C946   1.409       .  A
C945        C950   1.415       .  A
C945        H952   1.069       .  S
C947        C948   1.411       .  A
C947        N954   1.436       .  S
C948        H953   1.084       .  S
C949        C950   1.398       .  A
C950        N951   1.428       .  S
N951        O955   1.261       .  A
N951        O956   1.262       .  A
N954        O958   1.258       .  A
N954        O957   1.263       .  A
C959        C964   1.408       .  A
C959        H966   1.082       .  S
C960        C961   1.410   1_554  A
C961        C962   1.413       .  A
C961        N968   1.431       .  S
C962        C963   1.404       .  A
C962        H967   1.083       .  S
C964        N965   1.428       .  S
N965        O969   1.262       .  A
N965        O970   1.262       .  A
N968        O972   1.259       .  A
N968        O971   1.264       .  A
C973        C978   1.395       .  A
C973        H980   1.072       .  S
C975        C976   1.411       .  A
C975        N982   1.430       .  S
C976        H981   1.080       .  S
C977        C978   1.401       .  A
C978        N979   1.425       .  S
N979        O983   1.262       .  A
N979        O984   1.259       .  A
N982        O986   1.253       .  A
N982        O985   1.262   1_565  A
C987        C988   1.406       .  A
C987        C992   1.416       .  A
C987        H994   1.083       .  S
C989        C990   1.392       .  A
C989        N996   1.429       .  S
C990        H995   1.067       .  S
C992        N993   1.429       .  S
N993        O998   1.259       .  A
N996        O999   1.261   1_554  A
C1001      C1002   1.413   1_455  A
C1001      C1006   1.417       .  A
C1001      H1008   1.083       .  S
C1002      C2059   1.413       .  A
C1003      C2058   1.413       .  A
C1003      C1004   1.400       .  A
C1003      N1010   1.433       .  S
C1004      C2061   1.408       .  A
C1004      H1009   1.076       .  S
C1005      C2060   1.407       .  A
C1005      C1006   1.409   1_655  A
C1006      N1007   1.426       .  S
N1007      O1011   1.257       .  A
N1007      O1012   1.263       .  A
N1010      O1014   1.263       .  A
N1010      O1013   1.262       .  A
C1015      C1016   1.397   1_455  A
C1015      C1020   1.394       .  A
C1015      H1022   1.084       .  S
C1016      C2073   1.410       .  A
C1017      C2072   1.410       .  A
C1017      C1018   1.409       .  A
C1017      N1024   1.429       .  S
C1018      C2075   1.420       .  A
C1018      H1023   1.068       .  S
C1019      C2074   1.420   1_455  A
C1019      C1020   1.433       .  A
C1020      N1021   1.436       .  S
N1021      O1025   1.263       .  A
N1021      O1026   1.261       .  A
N1024      O1028   1.261       .  A
N1024      O1027   1.262       .  A
C1029      C1030   1.394   1_556  A
C1029      C1034   1.406       .  A
C1029      H1036   1.085       .  S
C1030      C1823   1.403       .  A
C1031      C1822   1.402   1_455  A
C1031      N1038   1.430       .  S
C1032      C1033   1.408   1_455  A
C1032      H1037   1.068       .  S
C1033      C2090   1.428   1_554  A
C1034      C2089   1.427   1_556  A
C1034      N1035   1.420       .  S
N1035      O1040   1.260       .  A
N1038      O1041   1.261       .  A
C1043      C1044   1.387   1_556  A
C1043      C1048   1.403       .  A
C1043      H1050   1.083       .  S
C1044      C1837   1.406       .  A
C1045      C1836   1.405   1_455  A
C1045      C1046   1.404       .  A
C1045      N1052   1.421       .  S
C1046      H1051   1.074       .  S
C1047      C2104   1.423   1_554  A
C1048      C2103   1.424   1_556  A
C1048      N1049   1.418       .  S
N1049      O1053   1.256       .  A
N1052      O1056   1.258       .  A
O1057      V1065   1.915       .  S
O1058      V1329   1.908       .  S
O1059      V1065   1.911       .  S
O1059      C1333   1.269       .  A
O1060      V1329   1.920       .  S
O1060      C1070   1.271       .  A
O1061      V1330   1.894       .  S
O1062      V1066   1.882       .  S
O1063      V1066   1.928       .  S
O1063      C1068   1.273       .  A
O1064      V1330   1.927       .  S
O1064      C1067   1.272       .  A
V1065      O1322   1.905   1_554  S
V1065      O1324   1.921       .  S
V1066      O1325   1.891       .  S
V1066      O1328   1.924       .  S
C1067      C1084   1.496       .  S
C1068      C1083   1.492       .  S
C1069      O1323   1.269       .  A
C1069      C1294   1.474       .  S
C1070      C1308   1.479       .  S
O1071      V1079   1.896       .  S
O1072      V1079   1.905       .  S
O1073      V1079   1.925       .  S
O1074      V1079   1.928       .  S
O1075      V1080   1.914       .  S
O1075      C1084   1.265       .  A
O1076      V1080   1.909       .  S
O1076      C1083   1.264       .  A
O1077      V1080   1.921       .  S
O1077      C1082   1.269       .  A
O1078      V1080   1.903       .  S
O1078      C1081   1.268       .  A
C1081      C1280   1.480       .  S
C1082      C1266   1.492       .  S
C1085      C1224   1.509       .  S
C1085      C1618   1.461       .  A
C1086      C1311   1.523       .  S
C1086      C1615   1.423       .  A
C1087      C1238   1.497       .  S
C1087      C1614   1.423   1_545  A
C1087      C1088   1.426       .  A
C1088      C1210   1.530       .  S
C1088      C1089   1.448       .  A
C1089      C1297   1.530       .  S
C1090      C1255   1.562       .  S
C1090      C1613   1.461   1_545  A
C1091      C1154   1.584       .  S
C1091      C1092   1.482   1_545  A
C1091      C1096   1.444       .  A
C1092      C1182   1.493   1_565  S
C1092      C1621   1.458       .  A
C1093      C1283   1.578       .  S
C1093      C1620   1.458       .  A
C1094      C1168   1.509       .  S
C1094      C1623   1.424       .  A
C1095      C1199   1.505       .  S
C1095      C1622   1.424       .  A
C1096      C1269   1.518       .  S
O1097      V1105   1.917       .  S
O1097      C1635   1.269       .  A
O1098      V1369   1.919       .  S
O1098      C1636   1.268       .  A
O1099      V1105   1.894       .  S
O1099      C1637   1.264       .  A
O1100      V1369   1.903       .  S
O1100      C1902   1.264       .  A
O1101      V1370   1.904   1_556  S
O1101      C1110   1.265       .  A
O1102      V1106   1.904       .  S
O1102      C1373   1.265       .  A
O1103      V1106   1.923       .  S
O1103      C1108   1.269       .  A
O1104      V1370   1.912       .  S
O1104      C1107   1.267       .  A
V1105      O1362   1.920   1_554  S
V1105      O1364   1.904   1_554  S
V1105      V1898   2.085       .  T
V1106      O1365   1.904       .  S
V1106      O1368   1.913       .  S
V1106      V1897   2.085   1_545  T
C1107      O1625   1.268   1_545  A
C1107      C1122   1.488       .  S
C1108      O1626   1.268   1_545  A
C1108      C1121   1.495       .  S
C1109      O1627   1.264   1_545  A
C1109      O1366   1.265       .  A
C1109      C1252   1.484       .  S
C1110      O1892   1.263   1_545  A
C1110      C1241   1.475       .  S
O1111      V1119   1.922       .  S
O1111      C1649   1.270       .  A
O1112      V1119   1.916       .  S
O1112      C1650   1.267       .  A
O1113      V1119   1.897       .  S
O1113      C1651   1.262       .  A
O1114      V1119   1.888       .  S
O1114      C1652   1.261       .  A
O1115      V1120   1.895       .  S
O1115      C1124   1.261       .  A
O1116      V1120   1.902       .  S
O1116      C1123   1.264       .  A
O1117      V1120   1.918       .  S
O1117      C1122   1.268       .  A
O1118      V1120   1.916       .  S
O1118      C1121   1.268       .  A
V1119      V1648   2.088       .  T
V1120      V1647   2.088   1_545  T
C1121      O1639   1.270   1_545  A
C1122      O1640   1.267   1_545  A
C1123      O1641   1.262   1_545  A
C1123      C1196   1.469   1_545  S
C1124      O1642   1.262   1_545  A
C1124      C1185   1.460       .  S
O1125      V1133   1.920   1_554  S
O1125      C1135   1.270       .  A
O1126      V1397   1.923       .  S
O1126      C1136   1.271       .  A
O1127      V1133   1.908       .  S
O1127      C1401   1.264       .  A
O1128      V1397   1.908       .  S
O1128      C1138   1.264       .  A
O1129      V1398   1.913       .  S
O1129      C1402   1.269       .  A
O1130      V1134   1.914       .  S
O1130      C1137   1.267       .  A
O1131      V1134   1.915       .  S
O1131      C1136   1.266       .  A
O1132      V1398   1.908   1_554  S
O1132      C1135   1.264       .  A
V1133      O1390   1.922       .  S
V1133      O1392   1.909       .  S
V1133      V1398   2.085       .  T
V1134      O1393   1.913       .  S
V1134      O1396   1.906       .  S
V1134      V1397   2.085       .  T
C1135      C1151   1.486       .  S
C1136      C1152   1.494       .  S
C1137      O1391   1.264       .  A
C1137      C1213   1.485       .  S
C1138      O1393   1.269       .  A
C1138      C1227   1.490       .  S
O1139      V1147   1.900       .  S
O1139      C1149   1.267       .  A
O1140      V1147   1.894       .  S
O1140      C1150   1.268       .  A
O1141      V1147   1.908       .  S
O1141      C1151   1.264       .  A
O1142      V1147   1.913       .  S
O1142      C1152   1.265       .  A
O1143      V1148   1.925       .  S
O1143      C1152   1.271       .  A
O1144      V1148   1.920       .  S
O1144      C1151   1.270       .  A
O1145      V1148   1.889       .  S
O1145      C1150   1.256       .  A
O1146      V1148   1.881       .  S
O1146      C1149   1.260       .  A
V1147      V1148   2.085       .  T
C1149      C1157   1.481       .  S
C1150      C1171   1.471       .  S
C1153      C1154   1.405       .  A
C1153      C1158   1.388       .  A
C1153      H1160   1.085       .  S
C1154      C1155   1.449       .  A
C1155      C1156   1.409       .  A
C1155      N1162   1.432       .  S
C1156      C1157   1.391       .  A
C1156      H1161   1.086       .  S
C1157      C1158   1.401       .  A
C1158      N1159   1.429       .  S
N1159      O1163   1.260       .  A
N1159      O1164   1.261       .  A
N1162      O1166   1.255       .  A
N1162      O1165   1.264       .  A
C1167      C1168   1.406       .  A
C1167      C1172   1.408       .  A
C1167      H1174   1.082       .  S
C1168      C1169   1.416       .  A
C1169      C1170   1.381       .  A
C1169      N1176   1.417       .  S
C1170      C1171   1.387       .  A
C1170      H1175   1.086       .  S
C1171      C1172   1.422       .  A
C1172      N1173   1.437       .  S
N1173      O1177   1.262       .  A
N1173      O1178   1.261       .  A
N1176      O1180   1.254       .  A
N1176      O1179   1.262       .  A
C1181      C1182   1.413       .  A
C1181      C1186   1.406       .  A
C1181      H1188   1.082       .  S
C1182      C1711   1.430   1_545  A
C1183      C1710   1.430       .  A
C1183      C1184   1.401       .  A
C1183      N1190   1.440       .  S
C1184      C1713   1.388       .  A
C1184      H1189   1.083       .  S
C1185      C1712   1.388   1_545  A
C1185      C1186   1.399       .  A
C1186      N1187   1.431       .  S
N1187      O1191   1.261       .  A
N1187      O1720   1.262       .  A
N1190      O1194   1.260       .  A
N1190      O1721   1.260       .  A
O1192      N1715   1.261       .  A
O1193      N1718   1.260       .  A
C1195      C1196   1.400       .  A
C1195      C1200   1.406       .  A
C1195      H1202   1.084       .  S
C1196      C1725   1.403   1_565  A
C1197      C1724   1.403       .  A
C1197      C1198   1.395       .  A
C1197      N1204   1.428       .  S
C1198      C1727   1.401       .  A
C1198      H1203   1.075       .  S
C1199      C1726   1.403   1_565  A
C1199      C1200   1.420       .  A
C1200      N1201   1.433       .  S
N1201      O1205   1.262       .  A
N1201      O1206   1.262       .  A
N1204      O1208   1.262       .  A
N1204      O1207   1.262       .  A
C1209      C1210   1.408       .  A
C1209      C1214   1.416       .  A
C1209      H1216   1.066       .  S
C1210      C1475   1.427       .  A
C1211      C1474   1.428   1_554  A
C1211      C1212   1.412       .  A
C1211      N1218   1.437       .  S
C1212      C1477   1.392   1_554  A
C1212      H1217   1.084       .  S
C1213      C1476   1.391       .  A
C1213      C1214   1.398       .  A
C1214      N1215   1.428       .  S
N1215      O1219   1.262       .  A
N1215      O1220   1.262       .  A
N1218      O1222   1.258       .  A
N1218      O1221   1.263       .  A
C1223      C1488   1.412       .  A
C1223      C1228   1.407       .  A
C1223      H1230   1.081       .  S
C1224      C1487   1.412       .  A
C1224      C1225   1.408       .  A
C1225      C1226   1.413       .  A
C1225      N1232   1.430       .  S
C1226      C1227   1.404       .  A
C1226      H1231   1.083       .  S
C1227      C1492   1.408       .  A
C1228      C1491   1.409   1_554  A
C1228      N1229   1.428       .  S
N1229      O1233   1.262       .  A
N1229      O1234   1.262       .  A
N1232      O1236   1.259       .  A
N1232      O1235   1.264       .  A
C1237      C1502   1.398       .  A
C1237      C1242   1.394       .  A
C1237      H1244   1.072       .  S
C1238      C1501   1.397       .  A
C1238      C1767   1.406   1_545  A
C1239      C1766   1.406       .  A
C1239      C1240   1.412       .  A
C1239      N1246   1.430       .  S
C1240      C2033   1.398       .  A
C1240      H1245   1.080       .  S
C1241      C2032   1.398   1_545  A
C1241      C1242   1.400   1_556  A
C1242      N1243   1.426       .  S
N1243      O1247   1.262       .  A
N1243      O1248   1.259       .  A
N1246      O1250   1.252       .  A
N1246      O1249   1.262       .  A
C1251      C1252   1.405       .  A
C1251      C1256   1.414       .  A
C1251      H1258   1.083       .  S
C1252      C2045   1.406   1_545  A
C1253      C2044   1.406       .  A
C1253      C1254   1.391       .  A
C1253      N1260   1.429       .  S
C1254      C1783   1.408       .  A
C1254      H1259   1.067       .  S
C1255      C1782   1.409   1_545  A
C1255      C1520   1.422       .  A
C1256      C1519   1.422       .  A
C1256      N1257   1.429       .  S
N1257      O1525   1.262       .  A
N1257      O1262   1.259       .  A
N1260      O1528   1.262       .  A
N1260      O1263   1.261       .  A
O1261      N1521   1.262       .  A
O1264      N1524   1.262       .  A
C1265      C1266   1.412       .  A
C1265      C1270   1.416       .  A
C1265      H1272   1.083       .  S
C1267      C1268   1.397       .  A
C1267      N1274   1.429       .  S
C1268      H1273   1.077       .  S
C1269      C1270   1.409       .  A
C1270      N1271   1.425       .  S
N1271      O1275   1.257       .  A
N1271      O1276   1.263       .  A
N1274      O1278   1.262       .  A
N1274      O1277   1.262       .  A
C1279      C1280   1.397       .  A
C1279      C1284   1.394       .  A
C1279      H1286   1.084       .  S
C1281      C1282   1.409       .  A
C1281      N1288   1.429       .  S
C1282      H1287   1.069       .  S
C1283      C1284   1.432       .  A
C1284      N1285   1.436       .  S
N1285      O1289   1.264       .  A
N1285      O1290   1.261       .  A
N1288      O1292   1.261       .  A
N1288      O1291   1.262       .  A
C1293      C1294   1.395       .  A
C1293      C1298   1.407       .  A
C1293      H1300   1.085       .  S
C1295      C1560   1.390       .  A
C1295      N1302   1.429       .  S
C1296      C1559   1.391       .  A
C1296      C1297   1.408       .  A
C1296      H1301   1.069       .  S
C1298      N1299   1.421       .  S
N1299      O1567   1.255       .  A
N1299      O1304   1.260       .  A
N1302      O1570   1.262       .  A
N1302      O1305   1.261       .  A
O1303      N1563   1.255       .  A
O1306      N1566   1.262       .  A
C1307      C1308   1.386       .  A
C1307      C1312   1.403       .  A
C1307      H1314   1.084       .  S
C1309      C1310   1.404       .  A
C1309      N1316   1.421       .  S
C1310      C1575   1.398       .  A
C1310      H1315   1.074       .  S
C1311      C1574   1.396       .  A
C1312      N1313   1.418       .  S
N1313      O1317   1.256       .  A
N1313      O1582   1.260       .  A
N1316      O1320   1.258       .  A
N1316      O1583   1.262       .  A
O1318      N1577   1.261       .  A
O1319      N1580   1.262       .  A
O1321      V1329   1.915       .  S
O1323      V1329   1.911       .  S
O1324      C1334   1.271       .  A
O1326      V1330   1.882       .  S
O1327      V1330   1.930   1_556  S
O1327      C1332   1.273       .  A
O1328      C1331   1.271       .  A
C1331      C1348   1.494       .  S
C1332      C1347   1.491       .  S
C1333      C1558   1.473       .  S
C1334      C1572   1.481       .  S
O1335      V1343   1.896       .  S
O1336      V1343   1.905       .  S
O1337      V1343   1.922       .  S
O1338      V1343   1.925       .  S
O1339      V1344   1.914       .  S
O1339      C1348   1.266       .  A
O1340      V1344   1.912       .  S
O1340      C1347   1.264       .  A
O1341      V1344   1.923       .  S
O1341      C1346   1.269       .  A
O1342      V1344   1.904       .  S
O1342      C1345   1.268       .  A
C1345      C1544   1.480       .  S
C1346      C1530   1.493       .  S
C1349      C1488   1.510       .  S
C1349      C1882   1.462       .  A
C1350      C1575   1.524       .  S
C1350      C1879   1.422       .  A
C1351      C1502   1.499       .  S
C1351      C1878   1.423   1_545  A
C1351      C1352   1.425       .  A
C1352      C1474   1.529   1_554  S
C1352      C1353   1.448       .  A
C1353      C1561   1.530   1_554  S
C1354      C1519   1.561       .  S
C1354      C1877   1.461   1_545  A
C1355      C1418   1.583       .  S
C1355      C1356   1.481       .  A
C1355      C1360   1.444       .  A
C1356      C1446   1.493       .  S
C1356      C1885   1.457   1_545  A
C1357      C1547   1.577       .  S
C1357      C1884   1.457       .  A
C1358      C1432   1.508       .  S
C1358      C1887   1.424       .  A
C1359      C1463   1.505       .  S
C1359      C1886   1.425       .  A
C1360      C1533   1.518       .  S
O1361      V1369   1.915       .  S
O1361      C1899   1.268       .  A
O1362      C1900   1.268       .  A
O1363      V1369   1.892       .  S
O1363      C1901   1.264       .  A
O1364      C1638   1.264       .  A
O1365      C1374   1.265       .  A
O1366      V1370   1.903       .  S
O1367      V1370   1.924   1_556  S
O1367      C1372   1.270       .  A
O1368      C1371   1.266       .  A
V1369      V1634   2.085       .  T
V1370      V1633   2.085   1_545  T
C1371      O1889   1.269   1_545  A
C1371      C1386   1.489       .  S
C1372      O1890   1.268   1_545  A
C1372      C1385   1.496       .  S
C1373      O1891   1.263   1_545  A
C1373      C1516   1.484       .  S
C1374      O1628   1.263   1_545  A
C1374      C1505   1.474       .  S
O1375      V1383   1.922       .  S
O1375      C1913   1.270       .  A
O1376      V1383   1.915       .  S
O1376      C1914   1.267       .  A
O1377      V1383   1.897       .  S
O1377      C1915   1.262       .  A
O1378      V1383   1.888       .  S
O1378      C1916   1.261       .  A
O1379      V1384   1.896       .  S
O1379      C1388   1.261       .  A
O1380      V1384   1.902       .  S
O1380      C1387   1.264       .  A
O1381      V1384   1.920       .  S
O1381      C1386   1.269       .  A
O1382      V1384   1.919       .  S
O1382      C1385   1.268       .  A
V1383      V1912   2.088       .  T
V1384      V1911   2.088   1_545  T
C1385      O1903   1.269   1_545  A
C1386      O1904   1.266   1_545  A
C1387      O1905   1.262   1_545  A
C1387      C1460   1.469   1_545  S
C1388      O1906   1.262   1_545  A
C1388      C1449   1.460       .  S
O1389      V1397   1.922       .  S
O1389      C1399   1.270       .  A
O1390      C1400   1.270       .  A
O1391      V1397   1.908       .  S
O1392      C1402   1.264       .  A
O1394      V1398   1.915       .  S
O1394      C1401   1.267       .  A
O1395      V1398   1.916       .  S
O1395      C1400   1.266       .  A
O1396      C1399   1.264       .  A
C1399      C1415   1.486       .  S
C1400      C1416   1.494       .  S
C1401      C1477   1.485       .  S
C1402      C1491   1.491       .  S
O1403      V1411   1.900       .  S
O1403      C1413   1.266       .  A
O1404      V1411   1.894       .  S
O1404      C1414   1.268       .  A
O1405      V1411   1.910       .  S
O1405      C1415   1.264       .  A
O1406      V1411   1.914       .  S
O1406      C1416   1.266       .  A
O1407      V1412   1.925       .  S
O1407      C1416   1.271       .  A
O1408      V1412   1.919       .  S
O1408      C1415   1.270       .  A
O1409      V1412   1.889       .  S
O1409      C1414   1.257       .  A
O1410      V1412   1.880       .  S
O1410      C1413   1.259       .  A
V1411      V1412   2.085       .  T
C1413      C1421   1.479       .  S
C1414      C1435   1.471       .  S
C1417      C1418   1.405       .  A
C1417      C1422   1.390       .  A
C1417      H1424   1.071       .  S
C1418      C1419   1.447       .  A
C1419      C1420   1.409       .  A
C1419      N1426   1.432       .  S
C1420      C1421   1.391       .  A
C1420      H1425   1.084       .  S
C1421      C1422   1.400       .  A
C1422      N1423   1.429       .  S
N1423      O1427   1.260       .  A
N1423      O1428   1.261       .  A
N1426      O1430   1.255       .  A
N1426      O1429   1.264       .  A
C1431      C1432   1.406       .  A
C1431      C1436   1.408       .  A
C1431      H1438   1.082       .  S
C1432      C1433   1.415       .  A
C1433      C1434   1.381       .  A
C1433      N1440   1.417       .  S
C1434      C1435   1.388       .  A
C1434      H1439   1.086       .  S
C1435      C1436   1.422       .  A
C1436      N1437   1.437       .  S
N1437      O1441   1.262       .  A
N1437      O1442   1.261       .  A
N1440      O1444   1.254       .  A
N1440      O1443   1.262       .  A
C1445      C1446   1.413       .  A
C1445      C1450   1.406       .  A
C1445      H1452   1.082       .  S
C1446      C1975   1.431   1_545  A
C1447      C1974   1.431       .  A
C1447      C1448   1.401       .  A
C1447      N1454   1.440       .  S
C1448      C1977   1.388       .  A
C1448      H1453   1.083       .  S
C1449      C1976   1.389   1_545  A
C1449      C1450   1.399       .  A
C1450      N1451   1.431       .  S
N1451      O1455   1.260       .  A
N1451      O1984   1.261       .  A
N1454      O1458   1.261       .  A
N1454      O1985   1.260       .  A
O1456      N1979   1.261       .  A
O1457      N1982   1.260       .  A
C1459      C1460   1.401       .  A
C1459      C1464   1.407       .  A
C1459      H1466   1.084       .  S
C1460      C1989   1.403   1_565  A
C1461      C1988   1.404       .  A
C1461      C1462   1.396       .  A
C1461      N1468   1.428       .  S
C1462      C1991   1.403       .  A
C1462      H1467   1.076       .  S
C1463      C1990   1.403   1_565  A
C1463      C1464   1.420       .  A
C1464      N1465   1.433       .  S
N1465      O1469   1.262       .  A
N1465      O1470   1.262       .  A
N1468      O1472   1.262       .  A
N1468      O1471   1.262       .  A
C1473      C1474   1.409       .  A
C1473      C1478   1.415       .  A
C1473      H1480   1.070       .  S
C1475      C1476   1.412       .  A
C1475      N1482   1.435       .  S
C1476      H1481   1.083       .  S
C1477      C1478   1.399       .  A
C1478      N1479   1.428       .  S
N1479      O1483   1.261       .  A
N1479      O1484   1.262       .  A
N1482      O1486   1.257       .  A
N1482      O1485   1.263       .  A
C1487      C1492   1.408       .  A
C1487      H1494   1.081       .  S
C1488      C1489   1.409   1_554  A
C1489      C1490   1.413       .  A
C1489      N1496   1.431       .  S
C1490      C1491   1.404       .  A
C1490      H1495   1.083       .  S
C1492      N1493   1.428       .  S
N1493      O1497   1.262       .  A
N1493      O1498   1.262       .  A
N1496      O1500   1.259       .  A
N1496      O1499   1.264       .  A
C1501      C1506   1.394       .  A
C1501      H1508   1.072       .  S
C1502      C2031   1.406   1_544  A
C1503      C2030   1.406   1_556  A
C1503      C1504   1.412       .  A
C1503      N1510   1.431       .  S
C1504      C1769   1.399       .  A
C1504      H1509   1.080       .  S
C1505      C1768   1.398   1_545  A
C1505      C1506   1.400       .  A
C1506      N1507   1.426       .  S
N1507      O1511   1.262       .  A
N1507      O1512   1.259       .  A
N1510      O1514   1.252       .  A
N1510      O1513   1.262       .  A
C1515      C1516   1.406       .  A
C1515      C1520   1.415       .  A
C1515      H1522   1.083       .  S
C1516      C1781   1.406   1_545  A
C1517      C1780   1.405       .  A
C1517      C1518   1.393       .  A
C1517      N1524   1.429       .  S
C1518      C2047   1.410       .  A
C1518      H1523   1.067       .  S
C1519      C2046   1.409   1_545  A
C1520      N1521   1.429       .  S
N1521      O1526   1.259       .  A
N1524      O1527   1.261       .  A
C1529      C1530   1.413       .  A
C1529      C1534   1.417       .  A
C1529      H1536   1.083       .  S
C1531      C1532   1.399       .  A
C1531      N1538   1.431       .  S
C1532      H1537   1.076       .  S
C1533      C1534   1.410       .  A
C1534      N1535   1.426       .  S
N1535      O1539   1.257       .  A
N1535      O1540   1.262       .  A
N1538      O1542   1.262       .  A
N1538      O1541   1.262       .  A
C1543      C1544   1.397       .  A
C1543      C1548   1.393       .  A
C1543      H1550   1.084       .  S
C1545      C1546   1.409       .  A
C1545      N1552   1.429       .  S
C1546      H1551   1.068       .  S
C1547      C1548   1.431       .  A
C1548      N1549   1.436       .  S
N1549      O1553   1.264       .  A
N1549      O1554   1.261       .  A
N1552      O1556   1.261       .  A
N1552      O1555   1.262       .  A
C1557      C1558   1.396   1_556  A
C1557      C1562   1.407       .  A
C1557      H1564   1.085       .  S
C1559      N1566   1.429       .  S
C1560      C1561   1.407   1_554  A
C1560      H1565   1.068       .  S
C1562      N1563   1.421       .  S
N1563      O1568   1.260       .  A
N1566      O1569   1.260       .  A
C1571      C1572   1.388   1_556  A
C1571      C1576   1.404       .  A
C1571      H1578   1.084       .  S
C1573      C1574   1.404       .  A
C1573      N1580   1.421       .  S
C1574      H1579   1.074       .  S
C1576      N1577   1.419       .  S
N1577      O1581   1.256       .  A
N1580      O1584   1.258       .  A
O1585      V1593   1.912       .  S
O1586      V1857   1.907       .  S
O1587      V1593   1.909       .  S
O1587      C1861   1.269       .  A
O1588      V1857   1.919       .  S
O1588      C1598   1.270       .  A
O1589      V1858   1.892       .  S
O1590      V1594   1.882       .  S
O1591      V1594   1.930       .  S
O1591      C1596   1.273       .  A
O1592      V1858   1.925       .  S
O1592      C1595   1.272       .  A
V1593      O1850   1.906   1_554  S
V1593      O1852   1.920       .  S
V1594      O1853   1.892       .  S
V1594      O1856   1.925       .  S
C1595      C1612   1.495       .  S
C1596      C1611   1.492       .  S
C1597      O1851   1.269       .  A
C1597      C1822   1.472       .  S
C1598      C1836   1.478       .  S
O1599      V1607   1.895       .  S
O1600      V1607   1.905       .  S
O1601      V1607   1.923       .  S
O1602      V1607   1.926       .  S
O1603      V1608   1.913       .  S
O1603      C1612   1.265       .  A
O1604      V1608   1.911       .  S
O1604      C1611   1.264       .  A
O1605      V1608   1.922       .  S
O1605      C1610   1.269       .  A
O1606      V1608   1.904       .  S
O1606      C1609   1.268       .  A
C1609      C1808   1.481       .  S
C1610      C1794   1.494       .  S
C1613      C1752   1.508       .  S
C1614      C1839   1.524       .  S
C1615      C1766   1.499       .  S
C1615      C1616   1.426       .  A
C1616      C1738   1.529       .  S
C1616      C1617   1.449       .  A
C1617      C1825   1.531       .  S
C1618      C1783   1.561       .  S
C1619      C1682   1.582       .  S
C1619      C1620   1.481       .  A
C1619      C1624   1.444       .  A
C1620      C1710   1.494       .  S
C1621      C1811   1.578       .  S
C1622      C1696   1.508       .  S
C1623      C1727   1.503       .  S
C1624      C1797   1.520       .  S
O1625      V1633   1.916       .  S
O1626      V1897   1.920       .  S
O1627      V1633   1.893       .  S
O1628      V1897   1.901       .  S
O1629      V1898   1.903   1_556  S
O1629      C1638   1.265       .  A
O1630      V1634   1.904       .  S
O1630      C1901   1.265       .  A
O1631      V1634   1.924       .  S
O1631      C1636   1.270       .  A
O1632      V1898   1.912       .  S
O1632      C1635   1.266       .  A
V1633      O1890   1.919   1_554  S
V1633      O1892   1.902   1_554  S
V1634      O1893   1.905       .  S
V1634      O1896   1.914       .  S
C1635      C1650   1.489       .  S
C1636      C1649   1.495       .  S
C1637      O1894   1.265       .  A
C1637      C1780   1.484       .  S
C1638      C1769   1.475       .  S
O1639      V1647   1.923       .  S
O1640      V1647   1.915       .  S
O1641      V1647   1.898       .  S
O1642      V1647   1.889       .  S
O1643      V1648   1.894       .  S
O1643      C1652   1.261       .  A
O1644      V1648   1.901       .  S
O1644      C1651   1.264       .  A
O1645      V1648   1.918       .  S
O1645      C1650   1.269       .  A
O1646      V1648   1.917       .  S
O1646      C1649   1.268       .  A
C1651      C1724   1.467       .  S
C1652      C1713   1.459       .  S
O1653      V1661   1.921   1_554  S
O1653      C1663   1.270       .  A
O1654      V1925   1.923       .  S
O1654      C1664   1.271       .  A
O1655      V1661   1.906       .  S
O1655      C1929   1.264       .  A
O1656      V1925   1.906       .  S
O1656      C1666   1.263       .  A
O1657      V1926   1.913       .  S
O1657      C1930   1.269       .  A
O1658      V1662   1.916       .  S
O1658      C1665   1.267       .  A
O1659      V1662   1.917       .  S
O1659      C1664   1.266       .  A
O1660      V1926   1.906   1_554  S
O1660      C1663   1.264       .  A
V1661      O1918   1.923       .  S
V1661      O1920   1.907       .  S
V1661      V1926   2.085       .  T
V1662      O1921   1.914       .  S
V1662      O1924   1.908       .  S
V1662      V1925   2.086       .  T
C1663      C1679   1.486       .  S
C1664      C1680   1.494       .  S
C1665      O1919   1.264       .  A
C1665      C1741   1.484       .  S
C1666      O1921   1.269       .  A
C1666      C1755   1.489       .  S
O1667      V1675   1.898       .  S
O1667      C1677   1.266       .  A
O1668      V1675   1.892       .  S
O1668      C1678   1.268       .  A
O1669      V1675   1.909       .  S
O1669      C1679   1.264       .  A
O1670      V1675   1.913       .  S
O1670      C1680   1.266       .  A
O1671      V1676   1.925       .  S
O1671      C1680   1.271       .  A
O1672      V1676   1.920       .  S
O1672      C1679   1.270       .  A
O1673      V1676   1.891       .  S
O1673      C1678   1.257       .  A
O1674      V1676   1.882       .  S
O1674      C1677   1.260       .  A
V1675      V1676   2.085       .  T
C1677      C1685   1.479       .  S
C1678      C1699   1.470       .  S
C1681      C1682   1.405       .  A
C1681      C1686   1.390       .  A
C1681      H1688   1.079       .  S
C1682      C1683   1.447       .  A
C1683      C1684   1.408       .  A
C1683      N1690   1.433       .  S
C1684      C1685   1.391       .  A
C1684      H1689   1.085       .  S
C1685      C1686   1.401       .  A
C1686      N1687   1.429       .  S
N1687      O1691   1.260       .  A
N1687      O1692   1.261       .  A
N1690      O1694   1.255       .  A
N1690      O1693   1.264       .  A
C1695      C1696   1.407       .  A
C1695      C1700   1.408       .  A
C1695      H1702   1.082       .  S
C1696      C1697   1.415       .  A
C1697      C1698   1.380       .  A
C1697      N1704   1.417       .  S
C1698      C1699   1.388       .  A
C1698      H1703   1.086       .  S
C1699      C1700   1.422       .  A
C1700      N1701   1.436       .  S
N1701      O1705   1.262       .  A
N1701      O1706   1.261       .  A
N1704      O1708   1.254       .  A
N1704      O1707   1.262       .  A
C1709      C1710   1.414       .  A
C1709      C1714   1.407       .  A
C1709      H1716   1.082       .  S
C1711      C1712   1.402       .  A
C1711      N1718   1.439       .  S
C1712      H1717   1.083       .  S
C1713      C1714   1.399       .  A
C1714      N1715   1.431       .  S
N1715      O1719   1.260       .  A
N1718      O1722   1.261       .  A
C1723      C1724   1.400       .  A
C1723      C1728   1.405       .  A
C1723      H1730   1.084       .  S
C1725      C1726   1.396       .  A
C1725      N1732   1.428       .  S
C1726      H1731   1.076       .  S
C1727      C1728   1.419       .  A
C1728      N1729   1.432       .  S
N1729      O1733   1.262       .  A
N1729      O1734   1.262       .  A
N1732      O1736   1.262       .  A
N1732      O1735   1.262       .  A
C1737      C1738   1.409       .  A
C1737      C1742   1.415       .  A
C1737      H1744   1.069       .  S
C1738      C2003   1.427       .  A
C1739      C2002   1.427   1_554  A
C1739      C1740   1.411       .  A
C1739      N1746   1.436       .  S
C1740      C2005   1.392   1_554  A
C1740      H1745   1.084       .  S
C1741      C2004   1.392       .  A
C1741      C1742   1.398       .  A
C1742      N1743   1.428       .  S
N1743      O1747   1.261       .  A
N1743      O1748   1.262       .  A
N1746      O1750   1.258       .  A
N1746      O1749   1.263       .  A
C1751      C2016   1.412   1_554  A
C1751      C1756   1.407       .  A
C1751      H1758   1.081       .  S
C1752      C2015   1.412       .  A
C1752      C1753   1.408       .  A
C1753      C1754   1.412       .  A
C1753      N1760   1.430       .  S
C1754      C1755   1.404       .  A
C1754      H1759   1.083       .  S
C1755      C2020   1.408       .  A
C1756      C2019   1.408   1_554  A
C1756      N1757   1.428       .  S
N1757      O1761   1.262       .  A
N1757      O1762   1.262       .  A
N1760      O1764   1.259       .  A
N1760      O1763   1.264       .  A
C1765      C2030   1.398       .  A
C1765      C1770   1.394       .  A
C1765      H1772   1.072       .  S
C1766      C2029   1.398       .  A
C1767      C1768   1.411       .  A
C1767      N1774   1.430       .  S
C1768      H1773   1.080       .  S
C1769      C1770   1.400   1_556  A
C1770      N1771   1.426       .  S
N1771      O1775   1.262       .  A
N1771      O1776   1.259       .  A
N1774      O1778   1.252       .  A
N1774      O1777   1.262   1_565  A
C1779      C1780   1.405       .  A
C1779      C1784   1.414       .  A
C1779      H1786   1.083       .  S
C1781      C1782   1.391       .  A
C1781      N1788   1.429       .  S
C1782      H1787   1.067       .  S
C1783      C2048   1.422       .  A
C1784      C2047   1.423       .  A
C1784      N1785   1.429       .  S
N1785      O2053   1.262       .  A
N1785      O1790   1.259       .  A
N1788      O2056   1.262       .  A
N1788      O1791   1.261       .  A
O1789      N2049   1.262       .  A
O1792      N2052   1.262       .  A
C1793      C1794   1.413       .  A
C1793      C1798   1.417       .  A
C1793      H1800   1.083       .  S
C1795      C1796   1.399       .  A
C1795      N1802   1.432       .  S
C1796      H1801   1.075       .  S
C1797      C1798   1.409       .  A
C1798      N1799   1.425       .  S
N1799      O1803   1.257       .  A
N1799      O1804   1.262       .  A
N1802      O1806   1.263       .  A
N1802      O1805   1.262       .  A
C1807      C1808   1.397       .  A
C1807      C1812   1.394       .  A
C1807      H1814   1.084       .  S
C1809      C1810   1.409       .  A
C1809      N1816   1.429       .  S
C1810      H1815   1.068       .  S
C1811      C1812   1.432       .  A
C1812      N1813   1.436       .  S
N1813      O1817   1.264       .  A
N1813      O1818   1.261       .  A
N1816      O1820   1.261       .  A
N1816      O1819   1.262       .  A
C1821      C1822   1.394       .  A
C1821      C1826   1.406       .  A
C1821      H1828   1.085       .  S
C1823      C2088   1.391       .  A
C1823      N1830   1.429       .  S
C1824      C2087   1.392       .  A
C1824      C1825   1.408       .  A
C1824      H1829   1.067       .  S
C1826      N1827   1.420       .  S
N1827      O2095   1.255       .  A
N1827      O1832   1.260       .  A
N1830      O2098   1.262       .  A
N1830      O1833   1.261       .  A
O1831      N2091   1.255       .  A
O1834      N2094   1.262       .  A
C1835      C1836   1.386       .  A
C1835      C1840   1.403       .  A
C1835      H1842   1.084       .  S
C1837      C1838   1.404       .  A
C1837      N1844   1.421       .  S
C1838      C2103   1.396       .  A
C1838      H1843   1.074       .  S
C1839      C2102   1.397       .  A
C1840      N1841   1.419       .  S
N1841      O1845   1.256       .  A
N1841      O2110   1.261       .  A
N1844      O1848   1.258       .  A
N1844      O2111   1.262       .  A
O1846      N2105   1.261       .  A
O1847      N2108   1.262       .  A
O1849      V1857   1.915       .  S
O1851      V1857   1.910       .  S
O1852      C1862   1.271       .  A
O1854      V1858   1.881       .  S
O1855      V1858   1.929   1_556  S
O1855      C1860   1.273       .  A
O1856      C1859   1.272       .  A
C1859      C1876   1.495       .  S
C1860      C1875   1.491       .  S
C1861      C2086   1.471   1_655  S
C1862      C2100   1.479       .  S
O1863      V1871   1.896       .  S
O1864      V1871   1.906       .  S
O1865      V1871   1.925       .  S
O1866      V1871   1.929       .  S
O1867      V1872   1.913       .  S
O1867      C1876   1.265       .  A
O1868      V1872   1.911       .  S
O1868      C1875   1.264       .  A
O1869      V1872   1.922       .  S
O1869      C1874   1.269       .  A
O1870      V1872   1.903       .  S
O1870      C1873   1.268       .  A
C1873      C2072   1.481       .  S
C1874      C2058   1.494       .  S
C1877      C2016   1.511   1_554  S
C1878      C2103   1.523       .  S
C1879      C2030   1.498       .  S
C1879      C1880   1.424       .  A
C1880      C2002   1.528   1_554  S
C1880      C1881   1.447       .  A
C1881      C2089   1.530       .  S
C1882      C2047   1.563       .  S
C1883      C1946   1.582       .  S
C1883      C1884   1.481       .  A
C1883      C1888   1.444       .  A
C1884      C1974   1.493       .  S
C1885      C2075   1.577       .  S
C1886      C1960   1.507       .  S
C1887      C1991   1.504       .  S
C1888      C2061   1.519       .  S
O1889      V1897   1.917       .  S
O1891      V1897   1.891       .  S
O1893      C1902   1.265       .  A
O1894      V1898   1.901       .  S
O1895      V1898   1.922   1_556  S
O1895      C1900   1.269       .  A
O1896      C1899   1.267       .  A
C1899      C1914   1.489       .  S
C1900      C1913   1.495       .  S
C1901      C2044   1.485       .  S
C1902      C2033   1.476       .  S
O1903      V1911   1.921       .  S
O1904      V1911   1.914       .  S
O1905      V1911   1.897       .  S
O1906      V1911   1.889       .  S
O1907      V1912   1.895       .  S
O1907      C1916   1.261       .  A
O1908      V1912   1.902       .  S
O1908      C1915   1.264       .  A
O1909      V1912   1.920       .  S
O1909      C1914   1.269       .  A
O1910      V1912   1.917       .  S
O1910      C1913   1.268       .  A
C1915      C1988   1.468       .  S
C1916      C1977   1.460       .  S
O1917      V1925   1.920       .  S
O1917      C1927   1.270       .  A
O1918      C1928   1.271       .  A
O1919      V1925   1.905       .  S
O1920      C1930   1.264       .  A
O1922      V1926   1.915       .  S
O1922      C1929   1.267       .  A
O1923      V1926   1.915       .  S
O1923      C1928   1.266       .  A
O1924      C1927   1.264       .  A
C1927      C1943   1.486       .  S
C1928      C1944   1.493       .  S
C1929      C2005   1.483       .  S
C1930      C2019   1.490       .  S
O1931      V1939   1.897       .  S
O1931      C1941   1.266       .  A
O1932      V1939   1.892       .  S
O1932      C1942   1.267       .  A
O1933      V1939   1.909       .  S
O1933      C1943   1.264       .  A
O1934      V1939   1.913       .  S
O1934      C1944   1.266       .  A
O1935      V1940   1.924       .  S
O1935      C1944   1.271       .  A
O1936      V1940   1.920       .  S
O1936      C1943   1.270       .  A
O1937      V1940   1.891       .  S
O1937      C1942   1.257       .  A
O1938      V1940   1.881       .  S
O1938      C1941   1.260       .  A
V1939      V1940   2.085       .  T
C1941      C1949   1.478       .  S
C1942      C1963   1.470       .  S
C1945      C1946   1.405       .  A
C1945      C1950   1.388       .  A
C1945      H1952   1.081       .  S
C1946      C1947   1.447       .  A
C1947      C1948   1.408       .  A
C1947      N1954   1.432       .  S
C1948      C1949   1.391       .  A
C1948      H1953   1.085       .  S
C1949      C1950   1.400       .  A
C1950      N1951   1.429       .  S
N1951      O1955   1.260       .  A
N1951      O1956   1.261       .  A
N1954      O1958   1.255       .  A
N1954      O1957   1.263       .  A
C1959      C1960   1.407       .  A
C1959      C1964   1.408       .  A
C1959      H1966   1.082       .  S
C1960      C1961   1.415       .  A
C1961      C1962   1.381       .  A
C1961      N1968   1.417       .  S
C1962      C1963   1.388       .  A
C1962      H1967   1.086       .  S
C1963      C1964   1.421       .  A
C1964      N1965   1.437       .  S
N1965      O1969   1.262       .  A
N1965      O1970   1.261       .  A
N1968      O1972   1.254       .  A
N1968      O1971   1.262       .  A
C1973      C1974   1.413       .  A
C1973      C1978   1.406       .  A
C1973      H1980   1.082       .  S
C1975      C1976   1.402       .  A
C1975      N1982   1.440       .  S
C1976      H1981   1.083       .  S
C1977      C1978   1.399       .  A
C1978      N1979   1.431       .  S
N1979      O1983   1.260       .  A
N1982      O1986   1.261       .  A
C1987      C1988   1.400       .  A
C1987      C1992   1.405       .  A
C1987      H1994   1.084       .  S
C1989      C1990   1.395       .  A
C1989      N1996   1.428       .  S
C1990      H1995   1.075       .  S
C1991      C1992   1.419       .  A
C1992      N1993   1.432       .  S
N1993      O1997   1.262       .  A
N1993      O1998   1.262       .  A
N1996      O2000   1.262       .  A
N1996      O1999   1.262       .  A
C2001      C2002   1.410       .  A
C2001      C2006   1.415       .  A
C2001      H2008   1.070       .  S
C2003      C2004   1.411       .  A
C2003      N2010   1.435       .  S
C2004      H2009   1.084       .  S
C2005      C2006   1.398       .  A
C2006      N2007   1.428       .  S
N2007      O2011   1.261       .  A
N2007      O2012   1.262       .  A
N2010      O2014   1.258       .  A
N2010      O2013   1.263       .  A
C2015      C2020   1.408       .  A
C2015      H2022   1.081       .  S
C2016      C2017   1.411       .  A
C2017      C2018   1.413       .  A
C2017      N2024   1.431       .  S
C2018      C2019   1.404       .  A
C2018      H2023   1.083       .  S
C2020      N2021   1.428       .  S
N2021      O2025   1.262       .  A
N2021      O2026   1.262       .  A
N2024      O2028   1.260       .  A
N2024      O2027   1.264       .  A
C2029      C2034   1.395       .  A
C2029      H2036   1.072       .  S
C2031      C2032   1.411       .  A
C2031      N2038   1.430       .  S
C2032      H2037   1.080       .  S
C2033      C2034   1.401       .  A
C2034      N2035   1.426       .  S
N2035      O2039   1.262       .  A
N2035      O2040   1.259       .  A
N2038      O2042   1.253       .  A
N2038      O2041   1.262   1_565  A
C2043      C2044   1.406       .  A
C2043      C2048   1.416       .  A
C2043      H2050   1.083       .  S
C2045      C2046   1.392       .  A
C2045      N2052   1.429       .  S
C2046      H2051   1.067       .  S
C2048      N2049   1.431       .  S
N2049      O2054   1.260       .  A
N2052      O2055   1.261   1_554  A
C2057      C2058   1.413       .  A
C2057      C2062   1.417       .  A
C2057      H2064   1.083       .  S
C2059      C2060   1.400       .  A
C2059      N2066   1.432       .  S
C2060      H2065   1.076       .  S
C2061      C2062   1.409       .  A
C2062      N2063   1.426       .  S
N2063      O2067   1.257       .  A
N2063      O2068   1.262       .  A
N2066      O2070   1.263       .  A
N2066      O2069   1.262       .  A
C2071      C2072   1.397       .  A
C2071      C2076   1.394       .  A
C2071      H2078   1.084       .  S
C2073      C2074   1.409       .  A
C2073      N2080   1.429       .  S
C2074      H2079   1.068       .  S
C2075      C2076   1.432       .  A
C2076      N2077   1.436       .  S
N2077      O2081   1.264       .  A
N2077      O2082   1.261       .  A
N2080      O2084   1.261       .  A
N2080      O2083   1.262       .  A
C2085      C2086   1.394   1_656  A
C2085      C2090   1.405       .  A
C2085      H2092   1.085       .  S
C2087      N2094   1.429       .  S
C2088      C2089   1.408       .  A
C2088      H2093   1.068       .  S
C2090      N2091   1.421       .  S
N2091      O2096   1.260       .  A
N2094      O2097   1.261       .  A
C2099      C2100   1.388   1_556  A
C2099      C2104   1.403       .  A
C2099      H2106   1.083       .  S
C2101      C2102   1.404       .  A
C2101      N2108   1.421       .  S
C2102      H2107   1.074       .  S
C2104      N2105   1.419       .  S
N2105      O2109   1.256       .  A
N2108      O2112   1.258       .  A
