geometry optimzed in LAMMPS
_audit_creation_date              2020-12-01 
_audit_creation_method            'lammps2cif' 
_symmetry_space_group_name_H-M    'P1' 
_symmetry_Int_Tables_number       1 
_symmetry_cell_setting            triclinic 
loop_ 
_symmetry_equiv_pos_as_xyz 
  x,y,z 
_cell_length_a                    37.6772874 
_cell_length_b                    37.676054756881086 
_cell_length_c                    30.364769506174245 
_cell_angle_alpha                 89.99965036356225 
_cell_angle_beta                  90.00112826275192 
_cell_angle_gamma                 120.06371763778336 
loop_ 
_atom_site_label 
_atom_site_type_symbol 
_atom_site_fract_x 
_atom_site_fract_y 
_atom_site_fract_z 
_atom_site_charge 
C1          C  0.02096093  0.47903988  0.74996032     0.79100
N2          N  0.47932743  0.45829286  0.74995978    -0.79200
C3          C  0.45844663  0.47900460  0.74995746     0.81500
N4          N  0.47937186  0.02063180  0.74995582    -0.79200
C5          C  0.02099757  0.04155694  0.74995599     0.81600
N6          N  0.04170766  0.02067472  0.74995857    -0.80900
O7          O  0.05491611  0.38608661  0.68377661    -0.74100
O8          O  0.05491278  0.38608691  0.81615822    -0.75100
O9          O  0.02357252  0.41742665  0.74996425    -0.63700
O10         O  0.08465209  0.35627917  0.74997169    -0.72100
O11         O  0.14373138  0.41536277  0.74997339    -0.71700
O12         O  0.08257344  0.47643162  0.74996560    -0.62900
O13         O  0.11391625  0.44509473  0.81616012    -0.75400
O14         O  0.11391976  0.44509428  0.68377773    -0.74200
Cu15       Cu  0.05219601  0.38467064  0.74996750     1.04600
Cu16       Cu  0.11533410  0.44781356  0.74996920     1.04300
C17         C  0.08600490  0.41400367  0.66320511     0.92100
C18         C  0.08600183  0.41400313  0.83673088     0.91200
C19         C  0.04340929  0.45659207  0.74996358     0.83400
C20         C  0.12376030  0.37625329  0.74997465     0.89700
C21         C  0.14599035  0.35402384  0.74997900     0.79100
N22         N  0.12521363  0.31250885  0.74997864    -0.79200
C23         C  0.14595595  0.29177850  0.74997885     0.81500
N24         N  0.18745932  0.31255233  0.74997942    -0.79200
C25         C  0.20823315  0.35405713  0.74998002     0.81600
N26         N  0.18750410  0.37480099  0.74997976    -0.80900
O27         O  0.05493187  0.16849942  0.81616612    -0.74100
O28         O  0.05493261  0.16851203  0.68376232    -0.75100
O29         O  0.02362042  0.10577586  0.74995805    -0.63700
O30         O  0.08461819  0.22808528  0.74997195    -0.72100
O31         O  0.14369854  0.22819473  0.74996964    -0.71700
O32         O  0.08261905  0.10587948  0.74995630    -0.62900
O33         O  0.11392903  0.16861051  0.68376596    -0.75400
O34         O  0.11392875  0.16859845  0.81615824    -0.74200
Cu35       Cu  0.05220710  0.16719389  0.74996453     1.04600
Cu36       Cu  0.11534476  0.16730901  0.74996224     1.04300
C37         C  0.08601671  0.17171871  0.83673816     0.92100
C38         C  0.08601704  0.17173390  0.66318840     0.91200
C39         C  0.04345756  0.08648698  0.74995632     0.83400
C40         C  0.12372219  0.24728887  0.74997377     0.89700
O41         O  0.33140806  0.38607653  0.81615942    -0.74100
O42         O  0.33139453  0.38607672  0.68376840    -0.75100
O43         O  0.39412413  0.41738289  0.74995866    -0.63700
O44         O  0.27181292  0.35631079  0.74997095    -0.72100
O45         O  0.27192659  0.41539524  0.74997478    -0.71700
O46         O  0.39423190  0.47638551  0.74996161    -0.62900
O47         O  0.33149707  0.44507711  0.68376572    -0.75400
O48         O  0.33151139  0.44507746  0.81616921    -0.74200
Cu49       Cu  0.33269637  0.38466061  0.74996412     1.04600
Cu50       Cu  0.33281632  0.44780276  0.74996785     1.04300
C51         C  0.32829015  0.41399049  0.83674014     0.92100
C52         C  0.32827339  0.41399082  0.66319127     0.91200
C53         C  0.41351804  0.45654564  0.74995876     0.83400
C54         C  0.25272147  0.37628992  0.74997540     0.89700
C55         C  0.31633053  0.40801629  0.61642065     0.79100
N56         N  0.30701691  0.37218158  0.59614965    -0.79200
C57         C  0.28954193  0.36329327  0.55549751     0.81500
N58         N  0.28077884  0.39020890  0.53538466    -0.79200
C59         C  0.28949749  0.42588131  0.55552232     0.81600
N60         N  0.30697955  0.43450261  0.59617234    -0.80900
C61         C  0.09198231  0.40802591  0.61644833     0.79100
N62         N  0.12785466  0.43455256  0.59620224    -0.79200
C63         C  0.13672912  0.42593264  0.55556981     0.81500
N64         N  0.10977229  0.39023277  0.53545598    -0.79200
C65         C  0.07407228  0.36327760  0.55556845     0.81600
N66         N  0.06545412  0.37215368  0.59620087    -0.80900
C67         C  0.09198247  0.40802197  0.88348563     0.79100
N68         N  0.06545688  0.37214730  0.90373009    -0.79200
C69         C  0.07408059  0.36326709  0.94435825     0.81500
N70         N  0.10978293  0.39021980  0.96446909    -0.79200
C71         C  0.13673710  0.42592131  0.94435745     0.81600
N72         N  0.12785740  0.43454587  0.90372976    -0.80900
C73         C  0.31634988  0.40801374  0.88351038     0.79100
N74         N  0.30703395  0.37217679  0.90377734    -0.79200
C75         C  0.28955576  0.36328494  0.94442715     0.81500
N76         N  0.28079154  0.39019867  0.96454140    -0.79200
C77         C  0.28951227  0.42587287  0.94440709     0.81600
N78         N  0.30699746  0.43449792  0.90375963    -0.80900
C79         C  0.09199146  0.18367712  0.61641769     0.79100
N80         N  0.12782500  0.19299126  0.59614723    -0.79200
C81         C  0.13671274  0.21046641  0.55549515     0.81500
N82         N  0.10979733  0.21922886  0.53538158    -0.79200
C83         C  0.07412575  0.21050929  0.55551861     0.81600
N84         N  0.06550546  0.19302731  0.59616858    -0.80900
C85         C  0.09199323  0.18365916  0.88350902     0.79100
N86         N  0.06550896  0.19300989  0.90375935    -0.79200
C87         C  0.07413318  0.21049449  0.94440795     0.81500
N88         N  0.10980695  0.21921647  0.96454250    -0.79200
C89         C  0.13672044  0.21045324  0.94442734     0.81600
N90         N  0.12782900  0.19297550  0.90377662    -0.80900
O91         O  0.20417047  0.22002972  0.94318876    -0.74100
O92         O  0.31553002  0.26001281  0.99687713    -0.75100
O93         O  0.23998188  0.18446792  0.99687756    -0.63700
O94         O  0.27997460  0.29583077  0.94318809    -0.72100
O95         O  0.26031555  0.31523766  0.00303481    -0.71700
O96         O  0.22032313  0.20387612  0.05672346    -0.62900
O97         O  0.29612681  0.27967668  0.05672286    -0.75400
O98         O  0.18476851  0.23969376  0.00303531    -0.74200
Cu99       Cu  0.26058682  0.23941238  0.96793803     1.04600
Cu100      Cu  0.23971107  0.26029375  0.03197387     1.04300
C101        C  0.17696093  0.22366410  0.96462342     0.92100
C102        C  0.32333712  0.27604342  0.03528856     0.91200
C103        C  0.22395264  0.17666269  0.03528904     0.83400
C104        C  0.27634397  0.32304336  0.96462296     0.89700
O105        O  0.48403939  0.27966490  0.05673745    -0.74100
O106        O  0.05542323  0.23980347  0.00298726    -0.75100
O107        O  0.05537711  0.31526036  0.00294481    -0.63700
O108        O  0.48408733  0.20395623  0.05678054    -0.72100
O109        O  0.44492079  0.18444808  0.99697681    -0.71700
O110        O  0.01620958  0.29575194  0.94314180    -0.62900
O111        O  0.01625895  0.22004479  0.94318562    -0.75400
O112        O  0.44487528  0.25990497  0.99693566    -0.74200
Cu113      Cu  0.02108257  0.26034977  0.03195519     1.04600
Cu114      Cu  0.47921552  0.23935871  0.96796749     1.04300
C115        C  0.45315745  0.27598276  0.03532531     0.92100
C116        C  0.04714123  0.22372703  0.96459700     0.91200
C117        C  0.04708548  0.32301499  0.96454962     0.83400
C118        C  0.45321145  0.17669321  0.03537224     0.89700
O119        O  0.27996562  0.29584018  0.55672813    -0.74100
O120        O  0.23997135  0.18447946  0.50302877    -0.75100
O121        O  0.31551842  0.26002426  0.50303033    -0.63700
O122        O  0.20416216  0.22003878  0.55672653    -0.72100
O123        O  0.18475592  0.23970421  0.49688313    -0.71700
O124        O  0.29611226  0.27968957  0.44318684    -0.62900
O125        O  0.22030937  0.20388888  0.44318517    -0.75400
O126        O  0.26030338  0.31524934  0.49688456    -0.74200
Cu127      Cu  0.26057699  0.23942264  0.53197298     1.04600
Cu128      Cu  0.23969752  0.26030585  0.46794039     1.04300
C129        C  0.27633251  0.32305332  0.53529680     0.92100
C130        C  0.22394255  0.17667575  0.46461635     0.91200
C131        C  0.32332302  0.27605353  0.46461819     0.83400
C132        C  0.17695119  0.22367448  0.53529502     0.89700
O133        O  0.01624828  0.22005637  0.55673780    -0.74100
O134        O  0.44486240  0.25991552  0.50298073    -0.75100
O135        O  0.44490890  0.18445881  0.50294104    -0.63700
O136        O  0.01619809  0.29576345  0.55678003    -0.72100
O137        O  0.05536529  0.31527237  0.49697852    -0.71700
O138        O  0.48407616  0.20396731  0.44313956    -0.62900
O139        O  0.48402679  0.27967434  0.44318094    -0.75400
O140        O  0.05541249  0.23981575  0.49693799    -0.74200
Cu141      Cu  0.47920371  0.23936994  0.53195240     1.04600
Cu142      Cu  0.02107095  0.26036103  0.46796686     1.04300
C143        C  0.04713131  0.22373964  0.53532828     0.92100
C144        C  0.45314358  0.27599090  0.46458999     0.91200
C145        C  0.45319924  0.17670439  0.46454571     0.83400
C146        C  0.04707466  0.32302657  0.53537400     0.89700
O147        O  0.29604430  0.01591506  0.05678080    -0.74100
O148        O  0.18474414  0.44462214  0.00294269    -0.75100
O149        O  0.26020035  0.44457929  0.00298469    -0.63700
O150        O  0.22033623  0.01595976  0.05673834    -0.72100
O151        O  0.24009470  0.05512600  0.99693817    -0.71700
O152        O  0.27995753  0.48374575  0.94318450    -0.62900
O153        O  0.20425122  0.48379197  0.94314135    -0.75400
O154        O  0.31555104  0.05508383  0.99697881    -0.74200
Cu155      Cu  0.23965282  0.47891813  0.03195425     1.04600
Cu156      Cu  0.26064214  0.02078759  0.96796828     1.04300
C157        C  0.32330622  0.04679175  0.03537332     0.92100
C158        C  0.17698902  0.45291510  0.96454836     0.91200
C159        C  0.27627718  0.45286324  0.96459529     0.83400
C160        C  0.22401663  0.04684199  0.03532685     0.89700
O161        O  0.22032520  0.01596957  0.44317846    -0.74100
O162        O  0.26018760  0.44458955  0.49694220    -0.75100
O163        O  0.18473227  0.44463460  0.49698146    -0.63700
O164        O  0.29603115  0.01592244  0.44313879    -0.71700
O165        O  0.31554062  0.05509513  0.50293813    -0.71700
O166        O  0.20424223  0.48380723  0.55678087    -0.62900
O167        O  0.27994818  0.48375900  0.55674011    -0.75400
O168        O  0.24008511  0.05513926  0.50297627    -0.74200
Cu169      Cu  0.23964034  0.47892797  0.46796797     1.04600
Cu170      Cu  0.26063266  0.02080112  0.53195122     1.04300
C171        C  0.22400811  0.04685449  0.46458616     0.92100
C172        C  0.27626519  0.45287423  0.53533187     0.91200
C173        C  0.17697926  0.45292853  0.53537597     0.83400
C174        C  0.32329399  0.04680146  0.46454380     0.89700
O175        O  0.41770889  0.02328948  0.24996859    -0.74100
O176        O  0.35655099  0.08435853  0.24994150    -0.75100
O177        O  0.38637090  0.05462147  0.18376558    -0.63700
O178        O  0.38635817  0.05463158  0.31614664    -0.72100
O179        O  0.44536183  0.11363922  0.31614768    -0.71700
O180        O  0.44537448  0.11362933  0.18376749    -0.62900
O181        O  0.41563026  0.14344215  0.24994316    -0.75400
O182        O  0.47670987  0.08229446  0.24996990    -0.74200
Cu183      Cu  0.38494818  0.05190763  0.24995582     1.04600
Cu184      Cu  0.44808646  0.11505050  0.24995745     1.04300
C185        C  0.45687307  0.04312901  0.24997150     0.92100
C186        C  0.37652196  0.12346808  0.24993699     0.91200
C187        C  0.41428714  0.08571125  0.16319449     0.83400
C188        C  0.41427197  0.08572327  0.33671860     0.89700
C189        C  0.35429177  0.14569751  0.24992633     0.79100
N190        N  0.31277808  0.12492048  0.24992471    -0.79200
C191        C  0.29204902  0.14566422  0.24992202     0.81500
N192        N  0.31282288  0.18716921  0.24992140    -0.79200
C193        C  0.35432642  0.20794296  0.24992319     0.81600
N194        N  0.37506856  0.18721247  0.24992572    -0.80900
O195        O  0.16878696  0.05465096  0.31614852    -0.74100
O196        O  0.16876823  0.05463322  0.18374601    -0.75100
O197        O  0.22835565  0.08432574  0.24993656    -0.63700
O198        O  0.10605010  0.02333482  0.24995695    -0.72100
O199        O  0.10615826  0.08233769  0.24995279    -0.71700
O200        O  0.22846911  0.14341007  0.24993094    -0.62900
O201        O  0.16887089  0.11363380  0.18374621    -0.75400
O202        O  0.16889092  0.11365206  0.31613839    -0.74200
Cu203      Cu  0.16746570  0.05191735  0.24994732     1.04600
Cu204      Cu  0.16758564  0.11505952  0.24994183     1.04300
C205        C  0.17201085  0.08573891  0.33671931     0.92100
C206        C  0.17198998  0.08571817  0.16317040     0.91200
C207        C  0.24756068  0.12343115  0.24992949     0.83400
C208        C  0.08676426  0.04317499  0.24995849     0.89700
O209        O  0.47666296  0.39394582  0.24996064    -0.74100
O210        O  0.41566458  0.27163610  0.24993952    -0.75100
O211        O  0.44536131  0.33122447  0.18374928    -0.63700
O212        O  0.44534282  0.33120750  0.31615231    -0.72100
O213        O  0.38634562  0.33110745  0.31614082    -0.71700
O214        O  0.38636487  0.33112621  0.18374755    -0.62900
O215        O  0.35658430  0.27152692  0.24993204    -0.75400
O216        O  0.41766410  0.39384176  0.24995515    -0.74200
Cu217      Cu  0.44807653  0.33252774  0.24995095     1.04600
Cu218      Cu  0.38493881  0.33241250  0.24994374     1.04300
C219        C  0.45682543  0.41323439  0.24996119     0.92100
C220        C  0.37656050  0.25243268  0.24993141     0.91200
C221        C  0.41427865  0.32800482  0.16317252     0.83400
C222        C  0.41425669  0.32798550  0.33672249     0.89700
C223        C  0.40831009  0.09168914  0.11643832     0.79100
N224        N  0.37243603  0.06516417  0.09619347    -0.79200
C225        C  0.36355805  0.07378685  0.05556398     0.81500
N226        N  0.39051317  0.10948777  0.03545150    -0.79200
C227        C  0.42621500  0.13644128  0.05556339     0.81600
N228        N  0.43483648  0.12756252  0.09619304    -0.80900
C229        C  0.40830501  0.31606038  0.11640268     0.79100
N230        N  0.43478965  0.30670688  0.09615741    -0.79200
C231        C  0.42616555  0.28921693  0.05551126     0.81500
N232        N  0.39049179  0.28049202  0.03537467    -0.79200
C233        C  0.36357790  0.28925722  0.05548525     0.81600
N234        N  0.37246928  0.30674061  0.09613302    -0.80900
C235        C  0.18393436  0.09169213  0.11640124     0.79100
N236        N  0.19328934  0.06520740  0.09615700    -0.79200
C237        C  0.21078000  0.07383240  0.05551198     0.81500
N238        N  0.21950382  0.10950674  0.03537570    -0.79200
C239        C  0.21073754  0.13642070  0.05548541     0.81600
N240        N  0.19325378  0.12752902  0.09613214    -0.80900
C241        C  0.40828129  0.31604518  0.38349402     0.79100
N242        N  0.43476809  0.30669782  0.40374594    -0.79200
C243        C  0.42614883  0.28921968  0.44439771     0.81500
N244        N  0.39047732  0.28050099  0.46453400    -0.79200
C245        C  0.36356117  0.28926091  0.44441787     0.81600
N246        N  0.37244774  0.30673205  0.40376364    -0.80900
C247        C  0.40829235  0.09170327  0.38347372     0.79100
N248        N  0.37241960  0.06517706  0.40371923    -0.79200
C249        C  0.36354415  0.07379804  0.44435043     0.81500
N250        N  0.39050043  0.10949844  0.46446391    -0.79200
C251        C  0.42620099  0.13645318  0.44435191     0.81600
N252        N  0.43482009  0.12757608  0.40372060    -0.80900
C253        C  0.18395081  0.09171427  0.38349082     0.79100
N254        N  0.19329906  0.06522723  0.40374190    -0.79200
C255        C  0.21077725  0.07384762  0.44439376     0.81500
N256        N  0.21949487  0.10951990  0.46453064    -0.79200
C257        C  0.21073418  0.13643615  0.44441546     0.81600
N258        N  0.19326314  0.12754899  0.40376115    -0.80900
C259        C  0.47932158  0.02068131  0.24997342     0.79100
N260        N  0.02095504  0.04142825  0.24997025    -0.79200
C261        C  0.04183581  0.02071650  0.24996593     0.81500
N262        N  0.02091059  0.47908937  0.24996489    -0.79200
C263        C  0.47928495  0.45816424  0.24996760     0.81600
N264        N  0.45857481  0.47904647  0.24997147    -0.80900
C265        C  0.02096100  0.97903995  0.74996034     0.79100
N266        N  0.47932743  0.95829288  0.74995978    -0.79200
C267        C  0.45844665  0.97900460  0.74995746     0.81500
N268        N  0.47937189  0.52063182  0.74995582    -0.79200
C269        C  0.02099761  0.54155697  0.74995579     0.81600
N270        N  0.04170761  0.52067465  0.74995858    -0.80900
O271        O  0.05491616  0.88608671  0.68377667    -0.74100
O272        O  0.05491273  0.88608684  0.81615817    -0.75100
O273        O  0.02357258  0.91742674  0.74996427    -0.63700
O274        O  0.08465204  0.85627914  0.74997166    -0.72100
O275        O  0.14373138  0.91536271  0.74997339    -0.71700
O276        O  0.08257349  0.97643173  0.74996561    -0.62900
O277        O  0.11391627  0.94509474  0.81616013    -0.75400
O278        O  0.11391982  0.94509433  0.68377767    -0.74200
Cu279      Cu  0.05219604  0.88467072  0.74996750     1.04600
Cu280      Cu  0.11533419  0.94781359  0.74996920     1.04300
C281        C  0.08600492  0.91400376  0.66320512     0.92100
C282        C  0.08600182  0.91400314  0.83673091     0.91200
C283        C  0.04340935  0.95659216  0.74996362     0.83400
C284        C  0.12376024  0.87625319  0.74997464     0.89700
C285        C  0.14599037  0.85402384  0.74997899     0.79100
N286        N  0.12521359  0.81250881  0.74997864    -0.79200
C287        C  0.14595592  0.79177852  0.74997886     0.81500
N288        N  0.18745926  0.81255220  0.74997942    -0.79200
C289        C  0.20823312  0.85405707  0.74998002     0.81600
N290        N  0.18750412  0.87480094  0.74997975    -0.80900
O291        O  0.05493188  0.66849943  0.81616616    -0.74100
O292        O  0.05493265  0.66851205  0.68376230    -0.75100
O293        O  0.02362045  0.60577583  0.74995805    -0.63700
O294        O  0.08461812  0.72808515  0.74997194    -0.72100
O295        O  0.14369855  0.72819477  0.74996969    -0.71700
O296        O  0.08261905  0.60587938  0.74995625    -0.62900
O297        O  0.11392909  0.66861054  0.68376598    -0.75400
O298        O  0.11392862  0.66859836  0.81615825    -0.74200
Cu299      Cu  0.05220706  0.66719376  0.74996450     1.04600
Cu300      Cu  0.11534471  0.66730891  0.74996222     1.04300
C301        C  0.08601671  0.67171875  0.83673816     0.92100
C302        C  0.08601706  0.67173388  0.66318838     0.91200
C303        C  0.04345760  0.58648698  0.74995631     0.83400
C304        C  0.12372216  0.74728886  0.74997379     0.89700
O305        O  0.33140803  0.88607644  0.81615940    -0.74100
O306        O  0.33139453  0.88607665  0.68376842    -0.75100
O307        O  0.39412414  0.91738285  0.74995865    -0.63700
O308        O  0.27181287  0.85631074  0.74997094    -0.72100
O309        O  0.27192658  0.91539524  0.74997479    -0.71700
O310        O  0.39423177  0.97638543  0.74996163    -0.62900
O311        O  0.33149711  0.94507711  0.68376576    -0.75400
O312        O  0.33151141  0.94507744  0.81616918    -0.74200
Cu313      Cu  0.33269636  0.88466052  0.74996413     1.04600
Cu314      Cu  0.33281630  0.94780271  0.74996785     1.04300
C315        C  0.32829017  0.91399046  0.83674011     0.92100
C316        C  0.32827343  0.91399080  0.66319129     0.91200
C317        C  0.41351804  0.95654561  0.74995876     0.83400
C318        C  0.25272143  0.87628984  0.74997539     0.89700
C319        C  0.31633056  0.90801638  0.61642067     0.79100
N320        N  0.30701697  0.87218163  0.59614964    -0.79200
C321        C  0.28954201  0.86329335  0.55549751     0.81500
N322        N  0.28077885  0.89020892  0.53538466    -0.79200
C323        C  0.28949758  0.92588138  0.55552235     0.81600
N324        N  0.30697962  0.93450269  0.59617235    -0.80900
C325        C  0.09198242  0.90802603  0.61644833     0.79100
N326        N  0.12785473  0.93455266  0.59620218    -0.79200
C327        C  0.13672916  0.92593260  0.55556983     0.81500
N328        N  0.10977229  0.89023276  0.53545598    -0.79200
C329        C  0.07407233  0.86327759  0.55556848     0.81600
N330        N  0.06545418  0.87215376  0.59620088    -0.80900
C331        C  0.09198243  0.90802185  0.88348568     0.79100
N332        N  0.06545691  0.87214732  0.90373016    -0.79200
C333        C  0.07408057  0.86326702  0.94435822     0.81500
N334        N  0.10978293  0.89021985  0.96446925    -0.79200
C335        C  0.13673710  0.92592130  0.94435753     0.81600
N336        N  0.12785739  0.93454591  0.90372981    -0.80900
C337        C  0.31634983  0.90801368  0.88351034     0.79100
N338        N  0.30703399  0.87217682  0.90377735    -0.79200
C339        C  0.28955584  0.86328498  0.94442717     0.81500
N340        N  0.28079151  0.89019865  0.96454141    -0.79200
C341        C  0.28951223  0.92587282  0.94440706     0.81600
N342        N  0.30699745  0.93449789  0.90375958    -0.80900
C343        C  0.09199144  0.68367702  0.61641769     0.79100
N344        N  0.12782507  0.69299142  0.59614725    -0.79200
C345        C  0.13671270  0.71046640  0.55549510     0.81500
N346        N  0.10979726  0.71922895  0.53538162    -0.79200
C347        C  0.07412564  0.71050915  0.55551864     0.81600
N348        N  0.06550550  0.69302739  0.59616866    -0.80900
C349        C  0.09199315  0.68365900  0.88350909     0.79100
N350        N  0.06550900  0.69300995  0.90375933    -0.79200
C351        C  0.07413314  0.71049442  0.94440800     0.81500
N352        N  0.10980693  0.71921644  0.96454252    -0.79200
C353        C  0.13672049  0.71045337  0.94442731     0.81600
N354        N  0.12782906  0.69297560  0.90377662    -0.80900
O355        O  0.20417052  0.72002978  0.94318874    -0.74100
O356        O  0.31552988  0.76001280  0.99687710    -0.75100
O357        O  0.23998193  0.68446796  0.99687755    -0.63700
O358        O  0.27997462  0.79583068  0.94318814    -0.72100
O359        O  0.26031561  0.81523771  0.00303482    -0.71700
O360        O  0.22032307  0.70387601  0.05672346    -0.62900
O361        O  0.29612684  0.77967667  0.05672288    -0.75400
O362        O  0.18476854  0.73969383  0.00303527    -0.74200
Cu363      Cu  0.26058689  0.73941245  0.96793804     1.04600
Cu364      Cu  0.23971114  0.76029381  0.03197387     1.04300
C365        C  0.17696091  0.72366399  0.96462347     0.92100
C366        C  0.32333711  0.77604342  0.03528856     0.91200
C367        C  0.22395267  0.67666270  0.03528900     0.83400
C368        C  0.27634398  0.82304333  0.96462294     0.89700
O369        O  0.48403941  0.77966496  0.05673744    -0.74100
O370        O  0.05542319  0.73980337  0.00298728    -0.75100
O371        O  0.05537712  0.81526029  0.00294478    -0.63700
O372        O  0.48408729  0.70395620  0.05678055    -0.72100
O373        O  0.44492074  0.68444801  0.99697678    -0.71700
O374        O  0.01620955  0.79575186  0.94314185    -0.62900
O375        O  0.01625897  0.72004486  0.94318564    -0.75400
O376        O  0.44487535  0.75990509  0.99693561    -0.74200
Cu377      Cu  0.02108254  0.76034969  0.03195523     1.04600
Cu378      Cu  0.47921552  0.73935875  0.96796749     1.04300
C379        C  0.45315736  0.77598265  0.03532532     0.92100
C380        C  0.04714118  0.72372692  0.96459706     0.91200
C381        C  0.04708545  0.82301497  0.96454966     0.83400
C382        C  0.45321139  0.67669318  0.03537226     0.89700
O383        O  0.27996557  0.79584010  0.55672812    -0.74100
O384        O  0.23997139  0.68447956  0.50302875    -0.75100
O385        O  0.31551846  0.76002439  0.50303030    -0.63700
O386        O  0.20416218  0.72003885  0.55672651    -0.72100
O387        O  0.18475598  0.73970433  0.49688316    -0.71700
O388        O  0.29611211  0.77968957  0.44318685    -0.62900
O389        O  0.22030928  0.70388878  0.44318515    -0.75400
O390        O  0.26030340  0.81524944  0.49688455    -0.74200
Cu391      Cu  0.26057703  0.73942277  0.53197297     1.04600
Cu392      Cu  0.23969745  0.76030597  0.46794044     1.04300
C393        C  0.27633248  0.82305332  0.53529683     0.92100
C394        C  0.22394251  0.67667570  0.46461637     0.91200
C395        C  0.32332305  0.77605365  0.46461815     0.83400
C396        C  0.17695120  0.72367457  0.53529497     0.89700
O397        O  0.01624820  0.72005623  0.55673780    -0.74100
O398        O  0.44486240  0.75991554  0.50298077    -0.75100
O399        O  0.44490888  0.68445883  0.50294101    -0.63700
O400        O  0.01619807  0.79576334  0.55678006    -0.72100
O401        O  0.05536527  0.81527235  0.49697855    -0.71700
O402        O  0.48407609  0.70396714  0.44313955    -0.62900
O403        O  0.48402678  0.77967428  0.44318097    -0.75400
O404        O  0.05541246  0.73981575  0.49693797    -0.74200
Cu405      Cu  0.47920368  0.73936989  0.53195239     1.04600
Cu406      Cu  0.02107092  0.76036098  0.46796686     1.04300
C407        C  0.04713129  0.72373962  0.53532828     0.92100
C408        C  0.45314348  0.77599075  0.46458995     0.91200
C409        C  0.45319923  0.67670430  0.46454572     0.83400
C410        C  0.04707463  0.82302651  0.53537405     0.89700
O411        O  0.29604425  0.51591495  0.05678085    -0.74100
O412        O  0.18474408  0.94462204  0.00294276    -0.75100
O413        O  0.26020038  0.94457933  0.00298470    -0.63700
O414        O  0.22033623  0.51595974  0.05673834    -0.72100
O415        O  0.24009465  0.55512592  0.99693815    -0.71700
O416        O  0.27995747  0.98374564  0.94318448    -0.62900
O417        O  0.20425112  0.98379196  0.94314142    -0.75400
O418        O  0.31555095  0.55508374  0.99697884    -0.74200
Cu419      Cu  0.23965279  0.97891809  0.03195425     1.04600
Cu420      Cu  0.26064218  0.52078765  0.96796828     1.04300
C421        C  0.32330617  0.54679178  0.03537342     0.92100
C422        C  0.17698902  0.95291509  0.96454843     0.91200
C423        C  0.27627710  0.95286317  0.96459525     0.83400
C424        C  0.22401662  0.54684192  0.03532686     0.89700
O425        O  0.22032524  0.51596956  0.44317846    -0.74100
O426        O  0.26018767  0.94458957  0.49694223    -0.75100
O427        O  0.18473226  0.94463453  0.49698148    -0.63700
O428        O  0.29603114  0.51592244  0.44313881    -0.71700
O429        O  0.31554065  0.55509511  0.50293813    -0.71700
O430        O  0.20424223  0.98380723  0.55678089    -0.62900
O431        O  0.27994820  0.98375902  0.55674013    -0.75400
O432        O  0.24008517  0.55513933  0.50297627    -0.74200
Cu433      Cu  0.23964033  0.97892793  0.46796799     1.04600
Cu434      Cu  0.26063268  0.52080115  0.53195122     1.04300
C435        C  0.22400822  0.54685457  0.46458612     0.92100
C436        C  0.27626513  0.95287417  0.53533194     0.91200
C437        C  0.17697927  0.95292845  0.53537601     0.83400
C438        C  0.32329393  0.54680151  0.46454379     0.89700
O439        O  0.41770898  0.52328954  0.24996861    -0.74100
O440        O  0.35655088  0.58435860  0.24994150    -0.75100
O441        O  0.38637088  0.55462139  0.18376558    -0.63700
O442        O  0.38635811  0.55463147  0.31614663    -0.72100
O443        O  0.44536177  0.61363910  0.31614766    -0.71700
O444        O  0.44537447  0.61362933  0.18376749    -0.62900
O445        O  0.41563031  0.64344205  0.24994317    -0.75400
O446        O  0.47670982  0.58229451  0.24996987    -0.74200
Cu447      Cu  0.38494820  0.55190759  0.24995582     1.04600
Cu448      Cu  0.44808643  0.61505050  0.24995747     1.04300
C449        C  0.45687313  0.54312907  0.24997149     0.92100
C450        C  0.37652197  0.62346810  0.24993700     0.91200
C451        C  0.41428713  0.58571129  0.16319452     0.83400
C452        C  0.41427189  0.58572323  0.33671859     0.89700
C453        C  0.35429176  0.64569751  0.24992634     0.79100
N454        N  0.31277799  0.62492038  0.24992472    -0.79200
C455        C  0.29204904  0.64566428  0.24992202     0.81500
N456        N  0.31282293  0.68716925  0.24992140    -0.79200
C457        C  0.35432642  0.70794289  0.24992318     0.81600
N458        N  0.37506853  0.68721241  0.24992572    -0.80900
O459        O  0.16878698  0.55465093  0.31614853    -0.74100
O460        O  0.16876824  0.55463320  0.18374601    -0.75100
O461        O  0.22835569  0.58432574  0.24993656    -0.63700
O462        O  0.10605017  0.52333484  0.24995698    -0.72100
O463        O  0.10615829  0.58233765  0.24995277    -0.71700
O464        O  0.22846908  0.64341002  0.24993090    -0.62900
O465        O  0.16887088  0.61363377  0.18374621    -0.75400
O466        O  0.16889093  0.61365203  0.31613838    -0.74200
Cu467      Cu  0.16746571  0.55191736  0.24994731     1.04600
Cu468      Cu  0.16758566  0.61505953  0.24994183     1.04300
C469        C  0.17201098  0.58573896  0.33671929     0.92100
C470        C  0.17198999  0.58571812  0.16317040     0.91200
C471        C  0.24756069  0.62343115  0.24992948     0.83400
C472        C  0.08676426  0.54317499  0.24995850     0.89700
O473        O  0.47666293  0.89394569  0.24996067    -0.74100
O474        O  0.41566461  0.77163616  0.24993951    -0.75100
O475        O  0.44536134  0.83122451  0.18374927    -0.63700
O476        O  0.44534287  0.83120756  0.31615233    -0.72100
O477        O  0.38634569  0.83110754  0.31614082    -0.71700
O478        O  0.38636490  0.83112628  0.18374753    -0.62900
O479        O  0.35658433  0.77152694  0.24993200    -0.75400
O480        O  0.41766414  0.89384180  0.24995515    -0.74200
Cu481      Cu  0.44807659  0.83252786  0.24995091     1.04600
Cu482      Cu  0.38493887  0.83241261  0.24994374     1.04300
C483        C  0.45682546  0.91323433  0.24996121     0.92100
C484        C  0.37656049  0.75243262  0.24993139     0.91200
C485        C  0.41427870  0.82800497  0.16317250     0.83400
C486        C  0.41425666  0.82798547  0.33672251     0.89700
C487        C  0.40831003  0.59168901  0.11643833     0.79100
N488        N  0.37243603  0.56516411  0.09619348    -0.79200
C489        C  0.36355801  0.57378675  0.05556404     0.81500
N490        N  0.39051313  0.60948764  0.03545149    -0.79200
C491        C  0.42621485  0.63644119  0.05556339     0.81600
N492        N  0.43483651  0.62756252  0.09619304    -0.80900
C493        C  0.40830508  0.81606048  0.11640271     0.79100
N494        N  0.43478974  0.80670701  0.09615739    -0.79200
C495        C  0.42616557  0.78921701  0.05551122     0.81500
N496        N  0.39049173  0.78049211  0.03537472    -0.79200
C497        C  0.36357795  0.78925735  0.05548532     0.81600
N498        N  0.37246933  0.80674069  0.09613308    -0.80900
C499        C  0.18393432  0.59169206  0.11640124     0.79100
N500        N  0.19328927  0.56520735  0.09615697    -0.79200
C501        C  0.21077995  0.57383232  0.05551199     0.81500
N502        N  0.21950375  0.60950667  0.03537571    -0.79200
C503        C  0.21073756  0.63642073  0.05548540     0.81600
N504        N  0.19325372  0.62752895  0.09613216    -0.80900
C505        C  0.40828114  0.81604510  0.38349401     0.79100
N506        N  0.43476811  0.80669790  0.40374591    -0.79200
C507        C  0.42614882  0.78921971  0.44439769     0.81500
N508        N  0.39047735  0.78050107  0.46453399    -0.79200
C509        C  0.36356121  0.78926100  0.44441783     0.81600
N510        N  0.37244767  0.80673213  0.40376369    -0.80900
C511        C  0.40829230  0.59170322  0.38347370     0.79100
N512        N  0.37241958  0.56517702  0.40371921    -0.79200
C513        C  0.36354413  0.57379795  0.44435045     0.81500
N514        N  0.39050046  0.60949845  0.46446389    -0.79200
C515        C  0.42620098  0.63645314  0.44435183     0.81600
N516        N  0.43482009  0.62757601  0.40372057    -0.80900
C517        C  0.18395087  0.59171437  0.38349083     0.79100
N518        N  0.19329911  0.56522732  0.40374192    -0.79200
C519        C  0.21077733  0.57384771  0.44439373     0.81500
N520        N  0.21949489  0.60951991  0.46453066    -0.79200
C521        C  0.21073424  0.63643619  0.44441546     0.81600
N522        N  0.19326317  0.62754910  0.40376116    -0.80900
C523        C  0.47932154  0.52068121  0.24997341     0.79100
N524        N  0.02095497  0.54142822  0.24997024    -0.79200
C525        C  0.04183581  0.52071646  0.24996593     0.81500
N526        N  0.02091056  0.97908933  0.24996489    -0.79200
C527        C  0.47928497  0.95816426  0.24996761     0.81600
N528        N  0.45857486  0.97904652  0.24997147    -0.80900
C529        C  0.52096098  0.47903987  0.74996034     0.79100
N530        N  0.97932740  0.45829288  0.74995977    -0.79200
C531        C  0.95844657  0.47900459  0.74995744     0.81500
N532        N  0.97937184  0.02063177  0.74995581    -0.79200
C533        C  0.52099763  0.04155695  0.74995580     0.81600
N534        N  0.54170768  0.02067469  0.74995858    -0.80900
O535        O  0.55491610  0.38608660  0.68377662    -0.74100
O536        O  0.55491286  0.38608692  0.81615820    -0.75100
O537        O  0.52357253  0.41742669  0.74996425    -0.63700
O538        O  0.58465204  0.35627913  0.74997167    -0.72100
O539        O  0.64373128  0.41536272  0.74997338    -0.71700
O540        O  0.58257350  0.47643165  0.74996562    -0.62900
O541        O  0.61391636  0.44509472  0.81616012    -0.75400
O542        O  0.61391976  0.44509426  0.68377776    -0.74200
Cu543      Cu  0.55219603  0.38467068  0.74996752     1.04600
Cu544      Cu  0.61533419  0.44781354  0.74996919     1.04300
C545        C  0.58600488  0.41400365  0.66320513     0.92100
C546        C  0.58600181  0.41400320  0.83673088     0.91200
C547        C  0.54340934  0.45659209  0.74996360     0.83400
C548        C  0.62376032  0.37625324  0.74997462     0.89700
C549        C  0.64599041  0.35402378  0.74997898     0.79100
N550        N  0.62521372  0.31250885  0.74997863    -0.79200
C551        C  0.64595594  0.29177847  0.74997885     0.81500
N552        N  0.68745940  0.31255227  0.74997942    -0.79200
C553        C  0.70823317  0.35405712  0.74998004     0.81600
N554        N  0.68750420  0.37480099  0.74997976    -0.80900
O555        O  0.55493192  0.16849941  0.81616613    -0.74100
O556        O  0.55493259  0.16851204  0.68376231    -0.75100
O557        O  0.52362040  0.10577588  0.74995802    -0.63700
O558        O  0.58461821  0.22808524  0.74997195    -0.72100
O559        O  0.64369866  0.22819475  0.74996966    -0.71700
O560        O  0.58261902  0.10587948  0.74995630    -0.62900
O561        O  0.61392904  0.16861052  0.68376598    -0.75400
O562        O  0.61392874  0.16859844  0.81615819    -0.74200
Cu563      Cu  0.55220719  0.16719389  0.74996452     1.04600
Cu564      Cu  0.61534484  0.16730899  0.74996221     1.04300
C565        C  0.58601677  0.17171870  0.83673814     0.92100
C566        C  0.58601706  0.17173390  0.66318841     0.91200
C567        C  0.54345754  0.08648699  0.74995633     0.83400
C568        C  0.62372228  0.24728885  0.74997377     0.89700
O569        O  0.83140817  0.38607655  0.81615943    -0.74100
O570        O  0.83139453  0.38607676  0.68376840    -0.75100
O571        O  0.89412418  0.41738291  0.74995865    -0.63700
O572        O  0.77181281  0.35631077  0.74997098    -0.72100
O573        O  0.77192656  0.41539524  0.74997481    -0.71700
O574        O  0.89423184  0.47638553  0.74996159    -0.62900
O575        O  0.83149700  0.44507710  0.68376573    -0.75400
O576        O  0.83151144  0.44507744  0.81616922    -0.74200
Cu577      Cu  0.83269646  0.38466065  0.74996412     1.04600
Cu578      Cu  0.83281632  0.44780277  0.74996787     1.04300
C579        C  0.82829004  0.41399042  0.83674012     0.92100
C580        C  0.82827333  0.41399082  0.66319129     0.91200
C581        C  0.91351801  0.45654566  0.74995873     0.83400
C582        C  0.75272143  0.37628993  0.74997543     0.89700
C583        C  0.81633046  0.40801626  0.61642067     0.79100
N584        N  0.80701687  0.37218153  0.59614966    -0.79200
C585        C  0.78954186  0.36329322  0.55549756     0.81500
N586        N  0.78077888  0.39020887  0.53538466    -0.79200
C587        C  0.78949741  0.42588125  0.55552233     0.81600
N588        N  0.80697949  0.43450258  0.59617234    -0.80900
C589        C  0.59198237  0.40802591  0.61644835     0.79100
N590        N  0.62785464  0.43455256  0.59620224    -0.79200
C591        C  0.63672907  0.42593262  0.55556983     0.81500
N592        N  0.60977224  0.39023275  0.53545598    -0.79200
C593        C  0.57407229  0.36327759  0.55556846     0.81600
N594        N  0.56545410  0.37215368  0.59620088    -0.80900
C595        C  0.59198243  0.40802197  0.88348561     0.79100
N596        N  0.56545682  0.37214730  0.90373009    -0.79200
C597        C  0.57408052  0.36326711  0.94435824     0.81500
N598        N  0.60978286  0.39021983  0.96446908    -0.79200
C599        C  0.63673707  0.42592136  0.94435750     0.81600
N600        N  0.62785737  0.43454586  0.90372973    -0.80900
C601        C  0.81634985  0.40801374  0.88351039     0.79100
N602        N  0.80703392  0.37217680  0.90377733    -0.79200
C603        C  0.78955571  0.36328493  0.94442714     0.81500
N604        N  0.78079148  0.39019867  0.96454139    -0.79200
C605        C  0.78951218  0.42587281  0.94440703     0.81600
N606        N  0.80699743  0.43449793  0.90375962    -0.80900
C607        C  0.59199158  0.18367710  0.61641772     0.79100
N608        N  0.62782503  0.19299128  0.59614720    -0.79200
C609        C  0.63671273  0.21046640  0.55549516     0.81500
N610        N  0.60979730  0.21922887  0.53538159    -0.79200
C611        C  0.57412575  0.21050931  0.55551862     0.81600
N612        N  0.56550552  0.19302729  0.59616867    -0.80900
C613        C  0.59199322  0.18365914  0.88350902     0.79100
N614        N  0.56550903  0.19300989  0.90375933    -0.79200
C615        C  0.57413312  0.21049449  0.94440792     0.81500
N616        N  0.60980692  0.21921648  0.96454251    -0.79200
C617        C  0.63672044  0.21045325  0.94442739     0.81600
N618        N  0.62782902  0.19297551  0.90377664    -0.80900
O619        O  0.70417054  0.22002972  0.94318880    -0.74100
O620        O  0.81552997  0.26001282  0.99687712    -0.75100
O621        O  0.73998184  0.18446794  0.99687756    -0.63700
O622        O  0.77997457  0.29583076  0.94318810    -0.72100
O623        O  0.76031557  0.31523764  0.00303480    -0.71700
O624        O  0.72032302  0.20387608  0.05672346    -0.62900
O625        O  0.79612682  0.27967667  0.05672286    -0.75400
O626        O  0.68476845  0.23969377  0.00303528    -0.74200
Cu627      Cu  0.76058686  0.23941239  0.96793808     1.04600
Cu628      Cu  0.73971100  0.26029374  0.03197385     1.04300
C629        C  0.67696098  0.22366409  0.96462342     0.92100
C630        C  0.82333709  0.27604342  0.03528855     0.91200
C631        C  0.72395275  0.17666274  0.03528913     0.83400
C632        C  0.77634389  0.32304332  0.96462293     0.89700
O633        O  0.98403931  0.27966490  0.05673743    -0.74100
O634        O  0.55542321  0.23980346  0.00298723    -0.75100
O635        O  0.55537705  0.31526036  0.00294482    -0.63700
O636        O  0.98408740  0.20395620  0.05678056    -0.72100
O637        O  0.94492077  0.18444809  0.99697685    -0.71700
O638        O  0.51620955  0.29575195  0.94314177    -0.62900
O639        O  0.51625895  0.22004481  0.94318558    -0.75400
O640        O  0.94487533  0.25990500  0.99693562    -0.74200
Cu641      Cu  0.52108255  0.26034976  0.03195520     1.04600
Cu642      Cu  0.97921549  0.23935873  0.96796752     1.04300
C643        C  0.95315743  0.27598274  0.03532524     0.92100
C644        C  0.54714122  0.22372704  0.96459698     0.91200
C645        C  0.54708542  0.32301500  0.96454961     0.83400
C646        C  0.95321143  0.17669323  0.03537229     0.89700
O647        O  0.77996570  0.29584018  0.55672813    -0.74100
O648        O  0.73997142  0.18447948  0.50302875    -0.75100
O649        O  0.81551837  0.26002426  0.50303031    -0.63700
O650        O  0.70416218  0.22003876  0.55672657    -0.72100
O651        O  0.68475598  0.23970416  0.49688318    -0.71700
O652        O  0.79611229  0.27968963  0.44318683    -0.62900
O653        O  0.72030939  0.20388886  0.44318519    -0.75400
O654        O  0.76030334  0.31524932  0.49688456    -0.74200
Cu655      Cu  0.76057706  0.23942266  0.53197297     1.04600
Cu656      Cu  0.73969747  0.26030584  0.46794044     1.04300
C657        C  0.77633245  0.32305328  0.53529685     0.92100
C658        C  0.72394262  0.17667577  0.46461633     0.91200
C659        C  0.82332305  0.27605354  0.46461817     0.83400
C660        C  0.67695119  0.22367445  0.53529507     0.89700
O661        O  0.51624841  0.22005638  0.55673779    -0.74100
O662        O  0.94486248  0.25991551  0.50298075    -0.75100
O663        O  0.94490890  0.18445879  0.50294106    -0.63700
O664        O  0.51619803  0.29576344  0.55678003    -0.72100
O665        O  0.55536527  0.31527237  0.49697855    -0.71700
O666        O  0.98407615  0.20396729  0.44313958    -0.62900
O667        O  0.98402675  0.27967436  0.44318094    -0.75400
O668        O  0.55541248  0.23981577  0.49693795    -0.74200
Cu669      Cu  0.97920378  0.23936995  0.53195243     1.04600
Cu670      Cu  0.52107090  0.26036105  0.46796685     1.04300
C671        C  0.54713134  0.22373967  0.53532823     0.92100
C672        C  0.95314355  0.27599090  0.46459003     0.91200
C673        C  0.95319924  0.17670439  0.46454571     0.83400
C674        C  0.54707459  0.32302657  0.53537402     0.89700
O675        O  0.79604423  0.01591503  0.05678079    -0.74100
O676        O  0.68474421  0.44462217  0.00294276    -0.75100
O677        O  0.76020031  0.44457926  0.00298468    -0.63700
O678        O  0.72033619  0.01595979  0.05673832    -0.72100
O679        O  0.74009478  0.05512603  0.99693817    -0.71700
O680        O  0.77995750  0.48374566  0.94318445    -0.62900
O681        O  0.70425115  0.48379199  0.94314140    -0.75400
O682        O  0.81555109  0.05508382  0.99697882    -0.74200
Cu683      Cu  0.73965274  0.47891813  0.03195427     1.04600
Cu684      Cu  0.76064219  0.02078757  0.96796827     1.04300
C685        C  0.82330629  0.04679174  0.03537335     0.92100
C686        C  0.67698905  0.45291508  0.96454842     0.91200
C687        C  0.77627722  0.45286322  0.96459528     0.83400
C688        C  0.72401661  0.04684199  0.03532679     0.89700
O689        O  0.72032516  0.01596956  0.44317843    -0.74100
O690        O  0.76018752  0.44458950  0.49694222    -0.75100
O691        O  0.68473217  0.44463459  0.49698149    -0.63700
O692        O  0.79603120  0.01592245  0.44313877    -0.71700
O693        O  0.81554055  0.05509508  0.50293819    -0.71700
O694        O  0.70424228  0.48380722  0.55678087    -0.62900
O695        O  0.77994819  0.48375902  0.55674006    -0.75400
O696        O  0.74008506  0.05513924  0.50297628    -0.74200
Cu697      Cu  0.73964029  0.47892799  0.46796796     1.04600
Cu698      Cu  0.76063274  0.02080115  0.53195121     1.04300
C699        C  0.72400821  0.04685451  0.46458613     0.92100
C700        C  0.77626514  0.45287420  0.53533185     0.91200
C701        C  0.67697919  0.45292853  0.53537600     0.83400
C702        C  0.82329395  0.04680148  0.46454382     0.89700
O703        O  0.91770893  0.02328949  0.24996859    -0.74100
O704        O  0.85655092  0.08435851  0.24994150    -0.75100
O705        O  0.88637086  0.05462146  0.18376562    -0.63700
O706        O  0.88635811  0.05463160  0.31614664    -0.72100
O707        O  0.94536180  0.11363922  0.31614769    -0.71700
O708        O  0.94537446  0.11362932  0.18376748    -0.62900
O709        O  0.91563022  0.14344212  0.24994317    -0.75400
O710        O  0.97670985  0.08229453  0.24996991    -0.74200
Cu711      Cu  0.88494817  0.05190764  0.24995582     1.04600
Cu712      Cu  0.94808643  0.11505051  0.24995745     1.04300
C713        C  0.95687309  0.04312907  0.24997150     0.92100
C714        C  0.87652198  0.12346804  0.24993699     0.91200
C715        C  0.91428711  0.08571125  0.16319449     0.83400
C716        C  0.91427191  0.08572327  0.33671862     0.89700
C717        C  0.85429190  0.14569755  0.24992633     0.79100
N718        N  0.81277817  0.12492049  0.24992471    -0.79200
C719        C  0.79204901  0.14566417  0.24992202     0.81500
N720        N  0.81282286  0.18716917  0.24992140    -0.79200
C721        C  0.85432642  0.20794295  0.24992319     0.81600
N722        N  0.87506852  0.18721249  0.24992572    -0.80900
O723        O  0.66878697  0.05465094  0.31614854    -0.74100
O724        O  0.66876825  0.05463320  0.18374599    -0.75100
O725        O  0.72835575  0.08432575  0.24993656    -0.63700
O726        O  0.60605008  0.02333483  0.24995695    -0.72100
O727        O  0.60615822  0.08233771  0.24995279    -0.71700
O728        O  0.72846917  0.14341006  0.24993094    -0.62900
O729        O  0.66887089  0.11363379  0.18374622    -0.75400
O730        O  0.66889091  0.11365207  0.31613838    -0.74200
Cu731      Cu  0.66746564  0.05191730  0.24994733     1.04600
Cu732      Cu  0.66758573  0.11505955  0.24994184     1.04300
C733        C  0.67201078  0.08573889  0.33671933     0.92100
C734        C  0.67198992  0.08571813  0.16317039     0.91200
C735        C  0.74756068  0.12343114  0.24992949     0.83400
C736        C  0.58676423  0.04317502  0.24995849     0.89700
O737        O  0.97666283  0.39394579  0.24996065    -0.74100
O738        O  0.91566464  0.27163608  0.24993952    -0.75100
O739        O  0.94536128  0.33122445  0.18374929    -0.63700
O740        O  0.94534279  0.33120748  0.31615230    -0.72100
O741        O  0.88634565  0.33110747  0.31614083    -0.71700
O742        O  0.88636491  0.33112623  0.18374756    -0.62900
O743        O  0.85658438  0.27152693  0.24993204    -0.75400
O744        O  0.91766399  0.39384178  0.24995515    -0.74200
Cu745      Cu  0.94807649  0.33252778  0.24995095     1.04600
Cu746      Cu  0.88493876  0.33241247  0.24994375     1.04300
C747        C  0.95682538  0.41323438  0.24996119     0.92100
C748        C  0.87656052  0.25243267  0.24993141     0.91200
C749        C  0.91427862  0.32800483  0.16317252     0.83400
C750        C  0.91425668  0.32798550  0.33672250     0.89700
C751        C  0.90831006  0.09168917  0.11643834     0.79100
N752        N  0.87243609  0.06516416  0.09619347    -0.79200
C753        C  0.86355814  0.07378684  0.05556401     0.81500
N754        N  0.89051316  0.10948776  0.03545150    -0.79200
C755        C  0.92621497  0.13644128  0.05556339     0.81600
N756        N  0.93483657  0.12756254  0.09619304    -0.80900
C757        C  0.90830500  0.31606038  0.11640268     0.79100
N758        N  0.93478962  0.30670689  0.09615745    -0.79200
C759        C  0.92616561  0.28921694  0.05551128     0.81500
N760        N  0.89049179  0.28049203  0.03537471    -0.79200
C761        C  0.86357790  0.28925722  0.05548526     0.81600
N762        N  0.87246924  0.30674061  0.09613300    -0.80900
C763        C  0.68393432  0.09169211  0.11640124     0.79100
N764        N  0.69328927  0.06520737  0.09615697    -0.79200
C765        C  0.71078009  0.07383244  0.05551200     0.81500
N766        N  0.71950376  0.10950672  0.03537568    -0.79200
C767        C  0.71073747  0.13642067  0.05548540     0.81600
N768        N  0.69325372  0.12752901  0.09613213    -0.80900
C769        C  0.90828125  0.31604518  0.38349401     0.79100
N770        N  0.93476809  0.30669782  0.40374591    -0.79200
C771        C  0.92614879  0.28921968  0.44439771     0.81500
N772        N  0.89047729  0.28050099  0.46453398    -0.79200
C773        C  0.86356119  0.28926092  0.44441786     0.81600
N774        N  0.87244769  0.30673204  0.40376366    -0.80900
C775        C  0.90829228  0.09170331  0.38347370     0.79100
N776        N  0.87241956  0.06517705  0.40371925    -0.79200
C777        C  0.86354411  0.07379804  0.44435043     0.81500
N778        N  0.89050042  0.10949846  0.46446387    -0.79200
C779        C  0.92620106  0.13645316  0.44435190     0.81600
N780        N  0.93482009  0.12757607  0.40372056    -0.80900
C781        C  0.68395081  0.09171430  0.38349082     0.79100
N782        N  0.69329899  0.06522722  0.40374192    -0.79200
C783        C  0.71077732  0.07384761  0.44439374     0.81500
N784        N  0.71949494  0.10951992  0.46453063    -0.79200
C785        C  0.71073415  0.13643615  0.44441546     0.81600
N786        N  0.69326317  0.12754899  0.40376116    -0.80900
C787        C  0.97932147  0.02068128  0.24997342     0.79100
N788        N  0.52095511  0.04142827  0.24997025    -0.79200
C789        C  0.54183587  0.02071647  0.24996593     0.81500
N790        N  0.52091058  0.47908933  0.24996489    -0.79200
C791        C  0.97928497  0.45816423  0.24996760     0.81600
N792        N  0.95857482  0.47904640  0.24997147    -0.80900
C793        C  0.52096097  0.97903997  0.74996034     0.79100
N794        N  0.97932745  0.95829291  0.74995978    -0.79200
C795        C  0.95844660  0.97900460  0.74995746     0.81500
N796        N  0.97937186  0.52063182  0.74995582    -0.79200
C797        C  0.52099763  0.54155696  0.74995579     0.81600
N798        N  0.54170761  0.52067463  0.74995858    -0.80900
O799        O  0.55491609  0.88608670  0.68377664    -0.74100
O800        O  0.55491282  0.88608686  0.81615817    -0.75100
O801        O  0.52357260  0.91742679  0.74996427    -0.63700
O802        O  0.58465198  0.85627909  0.74997165    -0.72100
O803        O  0.64373128  0.91536267  0.74997339    -0.71700
O804        O  0.58257358  0.97643178  0.74996562    -0.62900
O805        O  0.61391638  0.94509475  0.81616012    -0.75400
O806        O  0.61391976  0.94509432  0.68377771    -0.74200
Cu807      Cu  0.55219602  0.88467075  0.74996753     1.04600
Cu808      Cu  0.61533425  0.94781355  0.74996919     1.04300
C809        C  0.58600496  0.91400366  0.66320515     0.92100
C810        C  0.58600182  0.91400324  0.83673092     0.91200
C811        C  0.54340935  0.95659222  0.74996360     0.83400
C812        C  0.62376022  0.87625310  0.74997462     0.89700
C813        C  0.64599040  0.85402373  0.74997898     0.79100
N814        N  0.62521368  0.81250880  0.74997863    -0.79200
C815        C  0.64595597  0.79177850  0.74997886     0.81500
N816        N  0.68745936  0.81255217  0.74997943    -0.79200
C817        C  0.70823316  0.85405712  0.74998004     0.81600
N818        N  0.68750410  0.87480095  0.74997976    -0.80900
O819        O  0.55493195  0.66849943  0.81616617    -0.74100
O820        O  0.55493264  0.66851206  0.68376229    -0.75100
O821        O  0.52362047  0.60577584  0.74995803    -0.63700
O822        O  0.58461817  0.72808509  0.74997194    -0.72100
O823        O  0.64369872  0.72819481  0.74996969    -0.71700
O824        O  0.58261906  0.60587937  0.74995626    -0.62900
O825        O  0.61392908  0.66861054  0.68376595    -0.75400
O826        O  0.61392870  0.66859835  0.81615820    -0.74200
Cu827      Cu  0.55220715  0.66719375  0.74996450     1.04600
Cu828      Cu  0.61534482  0.66730890  0.74996221     1.04300
C829        C  0.58601681  0.67171875  0.83673814     0.92100
C830        C  0.58601709  0.67173389  0.66318837     0.91200
C831        C  0.54345760  0.58648697  0.74995631     0.83400
C832        C  0.62372223  0.74728885  0.74997379     0.89700
O833        O  0.83140815  0.88607646  0.81615939    -0.74100
O834        O  0.83139453  0.88607669  0.68376841    -0.75100
O835        O  0.89412416  0.91738282  0.74995863    -0.63700
O836        O  0.77181277  0.85631075  0.74997097    -0.72100
O837        O  0.77192651  0.91539524  0.74997481    -0.71700
O838        O  0.89423182  0.97638544  0.74996161    -0.62900
O839        O  0.83149703  0.94507710  0.68376576    -0.75400
O840        O  0.83151144  0.94507741  0.81616919    -0.74200
Cu841      Cu  0.83269645  0.88466057  0.74996411     1.04600
Cu842      Cu  0.83281629  0.94780270  0.74996786     1.04300
C843        C  0.82829006  0.91399038  0.83674008     0.92100
C844        C  0.82827339  0.91399081  0.66319129     0.91200
C845        C  0.91351802  0.95654559  0.74995876     0.83400
C846        C  0.75272139  0.87628990  0.74997543     0.89700
C847        C  0.81633046  0.90801634  0.61642068     0.79100
N848        N  0.80701687  0.87218159  0.59614967    -0.79200
C849        C  0.78954195  0.86329332  0.55549752     0.81500
N850        N  0.78077876  0.89020887  0.53538468    -0.79200
C851        C  0.78949750  0.92588135  0.55552236     0.81600
N852        N  0.80697953  0.93450265  0.59617235    -0.80900
C853        C  0.59198244  0.90802600  0.61644835     0.79100
N854        N  0.62785467  0.93455265  0.59620219    -0.79200
C855        C  0.63672908  0.92593256  0.55556988     0.81500
N856        N  0.60977221  0.89023276  0.53545599    -0.79200
C857        C  0.57407233  0.86327755  0.55556851     0.81600
N858        N  0.56545404  0.87215376  0.59620089    -0.80900
C859        C  0.59198242  0.90802188  0.88348566     0.79100
N860        N  0.56545686  0.87214735  0.90373017    -0.79200
C861        C  0.57408053  0.86326706  0.94435823     0.81500
N862        N  0.60978290  0.89021987  0.96446924    -0.79200
C863        C  0.63673708  0.92592134  0.94435755     0.81600
N864        N  0.62785739  0.93454590  0.90372978    -0.80900
C865        C  0.81634979  0.90801363  0.88351032     0.79100
N866        N  0.80703397  0.87217679  0.90377733    -0.79200
C867        C  0.78955579  0.86328492  0.94442713     0.81500
N868        N  0.78079147  0.89019862  0.96454137    -0.79200
C869        C  0.78951218  0.92587277  0.94440703     0.81600
N870        N  0.80699743  0.93449785  0.90375957    -0.80900
C871        C  0.59199149  0.68367701  0.61641769     0.79100
N872        N  0.62782510  0.69299142  0.59614727    -0.79200
C873        C  0.63671274  0.71046639  0.55549512     0.81500
N874        N  0.60979737  0.71922897  0.53538162    -0.79200
C875        C  0.57412568  0.71050919  0.55551859     0.81600
N876        N  0.56550562  0.69302740  0.59616867    -0.80900
C877        C  0.59199317  0.68365899  0.88350908     0.79100
N878        N  0.56550909  0.69300995  0.90375931    -0.79200
C879        C  0.57413310  0.71049442  0.94440797     0.81500
N880        N  0.60980692  0.71921645  0.96454254    -0.79200
C881        C  0.63672051  0.71045339  0.94442736     0.81600
N882        N  0.62782908  0.69297560  0.90377663    -0.80900
O883        O  0.70417059  0.72002979  0.94318881    -0.74100
O884        O  0.81552997  0.76001283  0.99687711    -0.75100
O885        O  0.73998188  0.68446797  0.99687754    -0.63700
O886        O  0.77997460  0.79583065  0.94318815    -0.72100
O887        O  0.76031565  0.81523769  0.00303482    -0.71700
O888        O  0.72032299  0.70387597  0.05672347    -0.62900
O889        O  0.79612683  0.77967665  0.05672287    -0.75400
O890        O  0.68476850  0.73969386  0.00303526    -0.74200
Cu891      Cu  0.76058694  0.73941246  0.96793808     1.04600
Cu892      Cu  0.73971108  0.76029381  0.03197385     1.04300
C893        C  0.67696097  0.72366399  0.96462350     0.92100
C894        C  0.82333711  0.77604342  0.03528854     0.91200
C895        C  0.72395278  0.67666275  0.03528909     0.83400
C896        C  0.77634391  0.82304328  0.96462291     0.89700
O897        O  0.98403935  0.77966497  0.05673746    -0.74100
O898        O  0.55542315  0.73980334  0.00298726    -0.75100
O899        O  0.55537707  0.81526030  0.00294480    -0.63700
O900        O  0.98408736  0.70395615  0.05678055    -0.72100
O901        O  0.94492071  0.68444801  0.99697681    -0.71700
O902        O  0.51620953  0.79575188  0.94314182    -0.62900
O903        O  0.51625897  0.72004487  0.94318558    -0.75400
O904        O  0.94487543  0.75990511  0.99693558    -0.74200
Cu905      Cu  0.52108250  0.76034968  0.03195523     1.04600
Cu906      Cu  0.97921550  0.73935875  0.96796753     1.04300
C907        C  0.95315739  0.77598264  0.03532530     0.92100
C908        C  0.54714116  0.72372692  0.96459702     0.91200
C909        C  0.54708542  0.82301500  0.96454965     0.83400
C910        C  0.95321135  0.67669320  0.03537229     0.89700
O911        O  0.77996560  0.79584011  0.55672810    -0.74100
O912        O  0.73997143  0.68447959  0.50302873    -0.75100
O913        O  0.81551846  0.76002438  0.50303033    -0.63700
O914        O  0.70416212  0.72003883  0.55672654    -0.72100
O915        O  0.68475606  0.73970430  0.49688313    -0.71700
O916        O  0.79611228  0.77968963  0.44318686    -0.62900
O917        O  0.72030933  0.70388876  0.44318516    -0.75400
O918        O  0.76030337  0.81524943  0.49688456    -0.74200
Cu919      Cu  0.76057712  0.73942279  0.53197296     1.04600
Cu920      Cu  0.73969754  0.76030597  0.46794046     1.04300
C921        C  0.77633248  0.82305332  0.53529682     0.92100
C922        C  0.72394266  0.67667575  0.46461632     0.91200
C923        C  0.82332311  0.77605365  0.46461819     0.83400
C924        C  0.67695122  0.72367455  0.53529498     0.89700
O925        O  0.51624832  0.72005624  0.55673778    -0.74100
O926        O  0.94486252  0.75991557  0.50298076    -0.75100
O927        O  0.94490889  0.68445883  0.50294102    -0.63700
O928        O  0.51619799  0.79576335  0.55678006    -0.72100
O929        O  0.55536521  0.81527236  0.49697856    -0.71700
O930        O  0.98407609  0.70396712  0.44313956    -0.62900
O931        O  0.98402676  0.77967431  0.44318095    -0.75400
O932        O  0.55541245  0.73981578  0.49693794    -0.74200
Cu933      Cu  0.97920375  0.73936989  0.53195242     1.04600
Cu934      Cu  0.52107086  0.76036100  0.46796684     1.04300
C935        C  0.54713135  0.72373967  0.53532821     0.92100
C936        C  0.95314349  0.77599077  0.46458996     0.91200
C937        C  0.95319923  0.67670429  0.46454571     0.83400
C938        C  0.54707456  0.82302652  0.53537406     0.89700
O939        O  0.79604417  0.51591493  0.05678083    -0.74100
O940        O  0.68474416  0.94462207  0.00294279    -0.75100
O941        O  0.76020036  0.94457932  0.00298471    -0.63700
O942        O  0.72033617  0.51595977  0.05673832    -0.72100
O943        O  0.74009472  0.55512595  0.99693815    -0.71700
O944        O  0.77995752  0.98374561  0.94318446    -0.62900
O945        O  0.70425117  0.98379198  0.94314145    -0.75400
O946        O  0.81555100  0.55508377  0.99697887    -0.74200
Cu947      Cu  0.73965275  0.97891808  0.03195425     1.04600
Cu948      Cu  0.76064208  0.52078763  0.96796829     1.04300
C949        C  0.82330621  0.54679177  0.03537345     0.92100
C950        C  0.67698907  0.95291510  0.96454846     0.91200
C951        C  0.77627706  0.95286311  0.96459523     0.83400
C952        C  0.72401656  0.54684190  0.03532678     0.89700
O953        O  0.72032520  0.51596956  0.44317844    -0.74100
O954        O  0.76018756  0.94458954  0.49694226    -0.75100
O955        O  0.68473217  0.94463452  0.49698149    -0.63700
O956        O  0.79603119  0.51592245  0.44313880    -0.71700
O957        O  0.81554058  0.55509506  0.50293820    -0.71700
O958        O  0.70424230  0.98380723  0.55678088    -0.62900
O959        O  0.77994821  0.98375905  0.55674009    -0.75400
O960        O  0.74008513  0.55513931  0.50297629    -0.74200
Cu961      Cu  0.73964028  0.97892795  0.46796798     1.04600
Cu962      Cu  0.76063276  0.52080116  0.53195120     1.04300
C963        C  0.72400832  0.54685459  0.46458609     0.92100
C964        C  0.77626508  0.95287416  0.53533193     0.91200
C965        C  0.67697919  0.95292844  0.53537607     0.83400
C966        C  0.82329389  0.54680155  0.46454380     0.89700
O967        O  0.91770901  0.52328957  0.24996861    -0.74100
O968        O  0.85655092  0.58435855  0.24994150    -0.75100
O969        O  0.88637086  0.55462140  0.18376561    -0.63700
O970        O  0.88635805  0.55463148  0.31614663    -0.72100
O971        O  0.94536174  0.61363910  0.31614767    -0.71700
O972        O  0.94537448  0.61362934  0.18376746    -0.62900
O973        O  0.91563024  0.64344202  0.24994318    -0.75400
O974        O  0.97670991  0.58229457  0.24996989    -0.74200
Cu975      Cu  0.88494818  0.55190759  0.24995582     1.04600
Cu976      Cu  0.94808639  0.61505051  0.24995748     1.04300
C977        C  0.95687313  0.54312912  0.24997150     0.92100
C978        C  0.87652198  0.62346804  0.24993700     0.91200
C979        C  0.91428711  0.58571128  0.16319449     0.83400
C980        C  0.91427184  0.58572324  0.33671858     0.89700
C981        C  0.85429190  0.64569755  0.24992634     0.79100
N982        N  0.81277810  0.62492040  0.24992471    -0.79200
C983        C  0.79204905  0.64566424  0.24992202     0.81500
N984        N  0.81282292  0.68716922  0.24992140    -0.79200
C985        C  0.85432645  0.70794289  0.24992318     0.81600
N986        N  0.87506852  0.68721244  0.24992572    -0.80900
O987        O  0.66878699  0.55465091  0.31614855    -0.74100
O988        O  0.66876825  0.55463318  0.18374600    -0.75100
O989        O  0.72835579  0.58432573  0.24993656    -0.63700
O990        O  0.60605012  0.52333486  0.24995698    -0.72100
O991        O  0.60615824  0.58233770  0.24995278    -0.71700
O992        O  0.72846915  0.64341000  0.24993091    -0.62900
O993        O  0.66887088  0.61363377  0.18374623    -0.75400
O994        O  0.66889092  0.61365203  0.31613836    -0.74200
Cu995      Cu  0.66746564  0.55191731  0.24994731     1.04600
Cu996      Cu  0.66758577  0.61505957  0.24994184     1.04300
C997        C  0.67201092  0.58573894  0.33671930     0.92100
C998        C  0.67198993  0.58571810  0.16317041     0.91200
C999        C  0.74756070  0.62343113  0.24992948     0.83400
C1000       C  0.58676425  0.54317506  0.24995850     0.89700
O1001       O  0.97666284  0.89394568  0.24996065    -0.74100
O1002       O  0.91566468  0.77163615  0.24993949    -0.75100
O1003       O  0.94536131  0.83122450  0.18374927    -0.63700
O1004       O  0.94534283  0.83120754  0.31615232    -0.72100
O1005       O  0.88634570  0.83110755  0.31614083    -0.71700
O1006       O  0.88636493  0.83112629  0.18374756    -0.62900
O1007       O  0.85658440  0.77152694  0.24993201    -0.75400
O1008       O  0.91766404  0.89384180  0.24995517    -0.74200
Cu1009     Cu  0.94807656  0.83252789  0.24995094     1.04600
Cu1010     Cu  0.88493884  0.83241258  0.24994374     1.04300
C1011       C  0.95682544  0.91323432  0.24996121     0.92100
C1012       C  0.87656052  0.75243261  0.24993139     0.91200
C1013       C  0.91427869  0.82800498  0.16317250     0.83400
C1014       C  0.91425666  0.82798546  0.33672251     0.89700
C1015       C  0.90830999  0.59168904  0.11643832     0.79100
N1016       N  0.87243607  0.56516408  0.09619345    -0.79200
C1017       C  0.86355807  0.57378673  0.05556407     0.81500
N1018       N  0.89051311  0.60948764  0.03545147    -0.79200
C1019       C  0.92621490  0.63644115  0.05556333     0.81600
N1020       N  0.93483656  0.62756252  0.09619302    -0.80900
C1021       C  0.90830508  0.81606048  0.11640270     0.79100
N1022       N  0.93478973  0.80670702  0.09615744    -0.79200
C1023       C  0.92616569  0.78921703  0.05551128     0.81500
N1024       N  0.89049185  0.78049212  0.03537474    -0.79200
C1025       C  0.86357797  0.78925733  0.05548527     0.81600
N1026       N  0.87246930  0.80674067  0.09613301    -0.80900
C1027       C  0.68393428  0.59169205  0.11640126     0.79100
N1028       N  0.69328919  0.56520732  0.09615695    -0.79200
C1029       C  0.71078001  0.57383235  0.05551202     0.81500
N1030       N  0.71950368  0.60950665  0.03537571    -0.79200
C1031       C  0.71073748  0.63642070  0.05548541     0.81600
N1032       N  0.69325365  0.62752894  0.09613217    -0.80900
C1033       C  0.90828123  0.81604511  0.38349401     0.79100
N1034       N  0.93476816  0.80669789  0.40374591    -0.79200
C1035       C  0.92614884  0.78921972  0.44439770     0.81500
N1036       N  0.89047734  0.78050107  0.46453399    -0.79200
C1037       C  0.86356124  0.78926100  0.44441785     0.81600
N1038       N  0.87244775  0.80673213  0.40376370    -0.80900
C1039       C  0.90829224  0.59170325  0.38347367     0.79100
N1040       N  0.87241955  0.56517703  0.40371921    -0.79200
C1041       C  0.86354410  0.57379797  0.44435045     0.81500
N1042       N  0.89050044  0.60949846  0.46446385    -0.79200
C1043       C  0.92620094  0.63645316  0.44435177     0.81600
N1044       N  0.93482011  0.62757601  0.40372054    -0.80900
C1045       C  0.68395086  0.59171440  0.38349082     0.79100
N1046       N  0.69329905  0.56522732  0.40374193    -0.79200
C1047       C  0.71077738  0.57384768  0.44439371     0.81500
N1048       N  0.71949493  0.60951991  0.46453065    -0.79200
C1049       C  0.71073422  0.63643618  0.44441546     0.81600
N1050       N  0.69326318  0.62754909  0.40376118    -0.80900
C1051       C  0.97932143  0.52068121  0.24997341     0.79100
N1052       N  0.52095505  0.54142822  0.24997024    -0.79200
C1053       C  0.54183586  0.52071644  0.24996593     0.81500
N1054       N  0.52091056  0.97908932  0.24996489    -0.79200
C1055       C  0.97928491  0.95816425  0.24996761     0.81600
N1056       N  0.95857485  0.97904646  0.24997147    -0.80900
loop_ 
_geom_bond_atom_site_label_1 
_geom_bond_atom_site_label_2 
_geom_bond_distance 
_geom_bond_site_symmetry_2 
_ccdc_geom_bond_type 
C1           C19   1.465       .  S
C1          N530   1.358   1_455  A
C1          N270   1.358       .  A
N2            C3   1.358       .  A
N2          C529   1.358       .  A
C3           C53   1.465       .  S
C3          N268   1.357       .  A
N4          C267   1.357   1_545  A
N4          C533   1.357       .  A
C5           C39   1.465       .  S
C5            N6   1.358       .  A
C5          N532   1.357   1_455  A
N6          C265   1.358   1_545  A
O7          Cu15   2.012       .  S
O7           C17   1.278       .  A
O8          Cu15   2.012       .  S
O8           C18   1.278       .  A
O9          Cu15   2.005       .  S
O9           C19   1.277       .  A
O10         Cu15   1.988       .  S
O10          C20   1.275       .  A
O11         Cu16   1.988       .  S
O11          C20   1.275       .  A
O12         Cu16   2.005       .  S
O12          C19   1.277       .  A
O13         Cu16   2.012       .  S
O13          C18   1.278       .  A
O14         Cu16   2.012       .  S
O14          C17   1.278       .  A
Cu15        Cu16   2.377       .  S
C17          C61   1.472       .  S
C18          C67   1.472       .  S
C20          C21   1.451       .  S
C21          N22   1.354       .  A
C21          N26   1.354       .  A
N22          C23   1.354       .  A
C23          C40   1.451       .  S
C23          N24   1.353       .  A
N24          C25   1.353       .  A
C25          C54   1.451       .  S
C25          N26   1.354       .  A
O27         Cu35   2.012       .  S
O27          C37   1.278       .  A
O28         Cu35   2.012       .  S
O28          C38   1.278       .  A
O29         Cu35   2.004       .  S
O29          C39   1.277       .  A
O30         Cu35   1.987       .  S
O30          C40   1.275       .  A
O31         Cu36   1.987       .  S
O31          C40   1.275       .  A
O32         Cu36   2.004       .  S
O32          C39   1.277       .  A
O33         Cu36   2.012       .  S
O33          C38   1.278       .  A
O34         Cu36   2.012       .  S
O34          C37   1.278       .  A
Cu35        Cu36   2.377       .  S
C37          C85   1.473       .  S
C38          C79   1.473       .  S
O41         Cu49   2.012       .  S
O41          C51   1.278       .  A
O42         Cu49   2.012       .  S
O42          C52   1.278       .  A
O43         Cu49   2.004       .  S
O43          C53   1.277       .  A
O44         Cu49   1.987       .  S
O44          C54   1.275       .  A
O45         Cu50   1.987       .  S
O45          C54   1.275       .  A
O46         Cu50   2.004       .  S
O46          C53   1.277       .  A
O47         Cu50   2.012       .  S
O47          C52   1.278       .  A
O48         Cu50   2.012       .  S
O48          C51   1.278       .  A
Cu49        Cu50   2.377       .  S
C51          C73   1.473       .  S
C52          C55   1.473       .  S
C55          N56   1.360       .  A
C55          N60   1.360       .  A
N56          C57   1.360       .  A
C57         C129   1.472       .  S
C57          N58   1.359       .  A
N58          C59   1.359       .  A
C59         C172   1.472       .  S
C59          N60   1.360       .  A
C61          N62   1.360       .  A
C61          N66   1.360       .  A
N62          C63   1.360       .  A
C63         C173   1.471       .  S
C63          N64   1.358       .  A
N64          C65   1.358       .  A
C65         C146   1.471       .  S
C65          N66   1.360       .  A
C67          N68   1.360       .  A
C67          N72   1.360       .  A
N68          C69   1.360       .  A
C69         C117   1.471       .  S
C69          N70   1.358       .  A
N70          C71   1.358       .  A
C71         C158   1.471       .  S
C71          N72   1.360       .  A
C73          N74   1.360       .  A
C73          N78   1.360       .  A
N74          C75   1.360       .  A
C75         C104   1.472       .  S
C75          N76   1.359       .  A
N76          C77   1.359       .  A
C77         C159   1.472       .  S
C77          N78   1.360       .  A
C79          N80   1.360       .  A
C79          N84   1.360       .  A
N80          C81   1.360       .  A
C81         C132   1.472       .  S
C81          N82   1.359       .  A
N82          C83   1.359       .  A
C83         C143   1.472       .  S
C83          N84   1.360       .  A
C85          N86   1.360       .  A
C85          N90   1.360       .  A
N86          C87   1.360       .  A
C87         C116   1.472       .  S
C87          N88   1.359       .  A
N88          C89   1.359       .  A
C89         C101   1.472       .  S
C89          N90   1.360       .  A
O91         Cu99   2.015       .  S
O91         C101   1.278       .  A
O92         Cu99   2.012       .  S
O92         C102   1.278   1_556  A
O93         Cu99   2.012       .  S
O93         C103   1.278   1_556  A
O94         Cu99   2.015       .  S
O94         C104   1.278       .  A
O95        Cu100   2.012       .  S
O95         C104   1.278   1_554  A
O96        Cu100   2.015       .  S
O96         C103   1.278       .  A
O97        Cu100   2.015       .  S
O97         C102   1.278       .  A
O98        Cu100   2.012       .  S
O98         C101   1.278   1_554  A
Cu99       Cu100   2.375   1_556  S
C102        C233   1.472       .  S
C103        C239   1.472       .  S
O105       Cu641   2.015       .  S
O105        C115   1.278       .  A
O106       Cu113   2.013       .  S
O106        C116   1.278   1_554  A
O107       Cu113   2.012       .  S
O107        C117   1.278   1_554  A
O108       Cu641   2.014       .  S
O108        C118   1.278       .  A
O109       Cu114   2.012       .  S
O109        C118   1.278   1_556  A
O110       Cu642   2.014   1_455  S
O110        C117   1.278       .  A
O111       Cu642   2.015   1_455  S
O111        C116   1.278       .  A
O112       Cu114   2.013       .  S
O112        C115   1.278   1_556  A
Cu113       O633   2.015   1_455  S
Cu113       O636   2.014   1_455  S
Cu113      Cu642   2.375   1_454  S
Cu114       O638   2.014       .  S
Cu114       O639   2.015       .  S
Cu114      Cu641   2.375   1_556  S
C115        C231   1.472       .  S
C118        C227   1.471       .  S
O119       Cu127   2.015       .  S
O119        C129   1.278       .  A
O120       Cu127   2.012       .  S
O120        C130   1.278       .  A
O121       Cu127   2.012       .  S
O121        C131   1.278       .  A
O122       Cu127   2.015       .  S
O122        C132   1.278       .  A
O123       Cu128   2.012       .  S
O123        C132   1.278       .  A
O124       Cu128   2.015       .  S
O124        C131   1.278       .  A
O125       Cu128   2.015       .  S
O125        C130   1.278       .  A
O126       Cu128   2.012       .  S
O126        C129   1.278       .  A
Cu127      Cu128   2.375       .  S
C130        C257   1.472       .  S
C131        C245   1.472       .  S
O133       Cu669   2.015   1_455  S
O133        C143   1.278       .  A
O134       Cu141   2.013       .  S
O134        C144   1.278       .  A
O135       Cu141   2.012       .  S
O135        C145   1.278       .  A
O136       Cu669   2.015   1_455  S
O136        C146   1.278       .  A
O137       Cu142   2.012       .  S
O137        C146   1.278       .  A
O138       Cu670   2.015       .  S
O138        C145   1.278       .  A
O139       Cu670   2.015       .  S
O139        C144   1.278       .  A
O140       Cu142   2.013       .  S
O140        C143   1.278       .  A
Cu141       O661   2.015       .  S
Cu141       O664   2.015       .  S
Cu141      Cu670   2.375       .  S
Cu142       O666   2.015   1_455  S
Cu142       O667   2.015   1_455  S
Cu142      Cu669   2.375   1_455  S
C144        C243   1.472       .  S
C145        C251   1.471       .  S
O147       Cu419   2.014   1_545  S
O147        C157   1.278       .  A
O148       Cu155   2.012       .  S
O148        C158   1.278   1_554  A
O149       Cu155   2.013       .  S
O149        C159   1.278   1_554  A
O150       Cu419   2.015   1_545  S
O150        C160   1.278       .  A
O151       Cu156   2.013       .  S
O151        C160   1.278   1_556  A
O152       Cu420   2.015       .  S
O152        C159   1.278       .  A
O153       Cu420   2.014       .  S
O153        C158   1.278       .  A
O154       Cu156   2.012       .  S
O154        C157   1.278   1_556  A
Cu155       O411   2.014       .  S
Cu155       O414   2.015       .  S
Cu155      Cu420   2.375   1_554  S
Cu156       O416   2.015   1_545  S
Cu156       O417   2.014   1_545  S
Cu156      Cu419   2.375   1_546  S
C157        C225   1.471       .  S
C160        C237   1.472       .  S
O161       Cu433   2.015   1_545  S
O161        C171   1.278       .  A
O162       Cu169   2.013       .  S
O162        C172   1.278       .  A
O163       Cu169   2.012       .  S
O163        C173   1.278       .  A
O164       Cu433   2.015   1_545  S
O164        C174   1.278       .  A
O165       Cu170   2.012       .  S
O165        C174   1.278       .  A
O166       Cu434   2.015       .  S
O166        C173   1.278       .  A
O167       Cu434   2.015       .  S
O167        C172   1.278       .  A
O168       Cu170   2.013       .  S
O168        C171   1.278       .  A
Cu169       O425   2.015       .  S
Cu169       O428   2.015       .  S
Cu169      Cu434   2.375       .  S
Cu170       O430   2.015   1_545  S
Cu170       O431   2.015   1_545  S
Cu170      Cu433   2.375   1_545  S
C171        C255   1.472       .  S
C174        C249   1.471       .  S
O175       Cu183   2.005       .  S
O175        C185   1.277       .  A
O176       Cu183   1.988       .  S
O176        C186   1.275       .  A
O177       Cu183   2.012       .  S
O177        C187   1.278       .  A
O178       Cu183   2.012       .  S
O178        C188   1.278       .  A
O179       Cu184   2.012       .  S
O179        C188   1.278       .  A
O180       Cu184   2.012       .  S
O180        C187   1.278       .  A
O181       Cu184   1.988       .  S
O181        C186   1.275       .  A
O182       Cu184   2.005       .  S
O182        C185   1.277       .  A
Cu183      Cu184   2.377       .  S
C185        C259   1.465       .  S
C186        C189   1.451       .  S
C187        C223   1.472       .  S
C188        C247   1.472       .  S
C189        N190   1.354       .  A
C189        N194   1.354       .  A
N190        C191   1.354       .  A
C191        C207   1.451       .  S
C191        N192   1.353       .  A
N192        C193   1.353       .  A
C193        C220   1.451       .  S
C193        N194   1.354       .  A
O195       Cu203   2.012       .  S
O195        C205   1.278       .  A
O196       Cu203   2.012       .  S
O196        C206   1.278       .  A
O197       Cu203   1.987       .  S
O197        C207   1.275       .  A
O198       Cu203   2.004       .  S
O198        C208   1.277       .  A
O199       Cu204   2.004       .  S
O199        C208   1.277       .  A
O200       Cu204   1.987       .  S
O200        C207   1.275       .  A
O201       Cu204   2.012       .  S
O201        C206   1.278       .  A
O202       Cu204   2.012       .  S
O202        C205   1.278       .  A
Cu203      Cu204   2.377       .  S
C205        C253   1.473       .  S
C206        C235   1.473       .  S
C208        C261   1.465       .  S
O209       Cu217   2.004       .  S
O209        C219   1.277       .  A
O210       Cu217   1.987       .  S
O210        C220   1.275       .  A
O211       Cu217   2.012       .  S
O211        C221   1.278       .  A
O212       Cu217   2.012       .  S
O212        C222   1.278       .  A
O213       Cu218   2.012       .  S
O213        C222   1.278       .  A
O214       Cu218   2.012       .  S
O214        C221   1.278       .  A
O215       Cu218   1.987       .  S
O215        C220   1.275       .  A
O216       Cu218   2.004       .  S
O216        C219   1.277       .  A
Cu217      Cu218   2.377       .  S
C219        C263   1.465       .  S
C221        C229   1.473       .  S
C222        C241   1.473       .  S
C223        N224   1.360       .  A
C223        N228   1.360       .  A
N224        C225   1.360       .  A
C225        N226   1.358       .  A
N226        C227   1.358       .  A
C227        N228   1.360       .  A
C229        N230   1.360       .  A
C229        N234   1.360       .  A
N230        C231   1.360       .  A
C231        N232   1.359       .  A
N232        C233   1.359       .  A
C233        N234   1.360       .  A
C235        N236   1.360       .  A
C235        N240   1.360       .  A
N236        C237   1.360       .  A
C237        N238   1.359       .  A
N238        C239   1.359       .  A
C239        N240   1.360       .  A
C241        N242   1.360       .  A
C241        N246   1.360       .  A
N242        C243   1.360       .  A
C243        N244   1.359       .  A
N244        C245   1.359       .  A
C245        N246   1.360       .  A
C247        N248   1.360       .  A
C247        N252   1.360       .  A
N248        C249   1.360       .  A
C249        N250   1.358       .  A
N250        C251   1.358       .  A
C251        N252   1.360       .  A
C253        N254   1.360       .  A
C253        N258   1.360       .  A
N254        C255   1.360       .  A
C255        N256   1.359       .  A
N256        C257   1.359       .  A
C257        N258   1.360       .  A
C259        N788   1.358       .  A
C259        N528   1.358   1_545  A
N260        C261   1.358       .  A
N260        C787   1.358   1_455  A
C261        N526   1.357   1_545  A
N262        C525   1.357       .  A
N262        C791   1.357   1_455  A
C263        N264   1.358       .  A
C263        N790   1.357       .  A
N264        C523   1.358       .  A
C265        C283   1.465       .  S
C265        N794   1.358   1_455  A
N266        C793   1.358       .  A
N266        C267   1.358       .  A
C267        C317   1.465       .  S
N268        C797   1.357       .  A
C269        C303   1.465       .  S
C269        N796   1.357   1_455  A
C269        N270   1.358       .  A
O271       Cu279   2.012       .  S
O271        C281   1.278       .  A
O272       Cu279   2.012       .  S
O272        C282   1.278       .  A
O273       Cu279   2.005       .  S
O273        C283   1.277       .  A
O274       Cu279   1.988       .  S
O274        C284   1.275       .  A
O275       Cu280   1.988       .  S
O275        C284   1.275       .  A
O276       Cu280   2.005       .  S
O276        C283   1.277       .  A
O277       Cu280   2.012       .  S
O277        C282   1.278       .  A
O278       Cu280   2.012       .  S
O278        C281   1.278       .  A
Cu279      Cu280   2.377       .  S
C281        C325   1.472       .  S
C282        C331   1.472       .  S
C284        C285   1.451       .  S
C285        N286   1.354       .  A
C285        N290   1.354       .  A
N286        C287   1.354       .  A
C287        C304   1.451       .  S
C287        N288   1.353       .  A
N288        C289   1.353       .  A
C289        C318   1.451       .  S
C289        N290   1.354       .  A
O291       Cu299   2.012       .  S
O291        C301   1.278       .  A
O292       Cu299   2.012       .  S
O292        C302   1.278       .  A
O293       Cu299   2.004       .  S
O293        C303   1.277       .  A
O294       Cu299   1.987       .  S
O294        C304   1.275       .  A
O295       Cu300   1.987       .  S
O295        C304   1.275       .  A
O296       Cu300   2.004       .  S
O296        C303   1.277       .  A
O297       Cu300   2.012       .  S
O297        C302   1.278       .  A
O298       Cu300   2.012       .  S
O298        C301   1.278       .  A
Cu299      Cu300   2.377       .  S
C301        C349   1.473       .  S
C302        C343   1.473       .  S
O305       Cu313   2.012       .  S
O305        C315   1.278       .  A
O306       Cu313   2.012       .  S
O306        C316   1.278       .  A
O307       Cu313   2.004       .  S
O307        C317   1.277       .  A
O308       Cu313   1.987       .  S
O308        C318   1.275       .  A
O309       Cu314   1.987       .  S
O309        C318   1.275       .  A
O310       Cu314   2.004       .  S
O310        C317   1.277       .  A
O311       Cu314   2.012       .  S
O311        C316   1.278       .  A
O312       Cu314   2.012       .  S
O312        C315   1.278       .  A
Cu313      Cu314   2.377       .  S
C315        C337   1.473       .  S
C316        C319   1.473       .  S
C319        N320   1.360       .  A
C319        N324   1.360       .  A
N320        C321   1.360       .  A
C321        C393   1.472       .  S
C321        N322   1.359       .  A
N322        C323   1.359       .  A
C323        C436   1.472       .  S
C323        N324   1.360       .  A
C325        N326   1.360       .  A
C325        N330   1.360       .  A
N326        C327   1.360       .  A
C327        C437   1.471       .  S
C327        N328   1.358       .  A
N328        C329   1.358       .  A
C329        C410   1.471       .  S
C329        N330   1.360       .  A
C331        N332   1.360       .  A
C331        N336   1.360       .  A
N332        C333   1.360       .  A
C333        C381   1.471       .  S
C333        N334   1.358       .  A
N334        C335   1.358       .  A
C335        C422   1.471       .  S
C335        N336   1.360       .  A
C337        N338   1.360       .  A
C337        N342   1.360       .  A
N338        C339   1.360       .  A
C339        C368   1.472       .  S
C339        N340   1.359       .  A
N340        C341   1.359       .  A
C341        C423   1.472       .  S
C341        N342   1.360       .  A
C343        N344   1.360       .  A
C343        N348   1.360       .  A
N344        C345   1.360       .  A
C345        C396   1.472       .  S
C345        N346   1.359       .  A
N346        C347   1.359       .  A
C347        C407   1.472       .  S
C347        N348   1.360       .  A
C349        N350   1.360       .  A
C349        N354   1.360       .  A
N350        C351   1.360       .  A
C351        C380   1.472       .  S
C351        N352   1.359       .  A
N352        C353   1.359       .  A
C353        C365   1.472       .  S
C353        N354   1.360       .  A
O355       Cu363   2.015       .  S
O355        C365   1.278       .  A
O356       Cu363   2.012       .  S
O356        C366   1.278   1_556  A
O357       Cu363   2.012       .  S
O357        C367   1.278   1_556  A
O358       Cu363   2.015       .  S
O358        C368   1.278       .  A
O359       Cu364   2.012       .  S
O359        C368   1.278   1_554  A
O360       Cu364   2.015       .  S
O360        C367   1.278       .  A
O361       Cu364   2.015       .  S
O361        C366   1.278       .  A
O362       Cu364   2.012       .  S
O362        C365   1.278   1_554  A
Cu363      Cu364   2.375   1_556  S
C366        C497   1.472       .  S
C367        C503   1.472       .  S
O369       Cu905   2.015       .  S
O369        C379   1.278       .  A
O370       Cu377   2.013       .  S
O370        C380   1.278   1_554  A
O371       Cu377   2.012       .  S
O371        C381   1.278   1_554  A
O372       Cu905   2.014       .  S
O372        C382   1.278       .  A
O373       Cu378   2.012       .  S
O373        C382   1.278   1_556  A
O374       Cu906   2.014   1_455  S
O374        C381   1.278       .  A
O375       Cu906   2.015   1_455  S
O375        C380   1.278       .  A
O376       Cu378   2.013       .  S
O376        C379   1.278   1_556  A
Cu377       O897   2.015   1_455  S
Cu377       O900   2.014   1_455  S
Cu377      Cu906   2.375   1_454  S
Cu378       O902   2.014       .  S
Cu378       O903   2.015       .  S
Cu378      Cu905   2.375   1_556  S
C379        C495   1.472       .  S
C382        C491   1.471       .  S
O383       Cu391   2.015       .  S
O383        C393   1.278       .  A
O384       Cu391   2.012       .  S
O384        C394   1.278       .  A
O385       Cu391   2.012       .  S
O385        C395   1.278       .  A
O386       Cu391   2.015       .  S
O386        C396   1.278       .  A
O387       Cu392   2.012       .  S
O387        C396   1.278       .  A
O388       Cu392   2.015       .  S
O388        C395   1.278       .  A
O389       Cu392   2.015       .  S
O389        C394   1.278       .  A
O390       Cu392   2.012       .  S
O390        C393   1.278       .  A
Cu391      Cu392   2.375       .  S
C394        C521   1.472       .  S
C395        C509   1.472       .  S
O397       Cu933   2.015   1_455  S
O397        C407   1.278       .  A
O398       Cu405   2.013       .  S
O398        C408   1.278       .  A
O399       Cu405   2.012       .  S
O399        C409   1.278       .  A
O400       Cu933   2.015   1_455  S
O400        C410   1.278       .  A
O401       Cu406   2.012       .  S
O401        C410   1.278       .  A
O402       Cu934   2.015       .  S
O402        C409   1.278       .  A
O403       Cu934   2.015       .  S
O403        C408   1.278       .  A
O404       Cu406   2.013       .  S
O404        C407   1.278       .  A
Cu405       O925   2.015       .  S
Cu405       O928   2.015       .  S
Cu405      Cu934   2.375       .  S
Cu406       O930   2.015   1_455  S
Cu406       O931   2.015   1_455  S
Cu406      Cu933   2.375   1_455  S
C408        C507   1.472       .  S
C409        C515   1.471       .  S
O411        C421   1.278       .  A
O412       Cu419   2.012       .  S
O412        C422   1.278   1_554  A
O413       Cu419   2.013       .  S
O413        C423   1.278   1_554  A
O414        C424   1.278       .  A
O415       Cu420   2.013       .  S
O415        C424   1.278   1_556  A
O416        C423   1.278       .  A
O417        C422   1.278       .  A
O418       Cu420   2.012       .  S
O418        C421   1.278   1_556  A
C421        C489   1.471       .  S
C424        C501   1.472       .  S
O425        C435   1.278       .  A
O426       Cu433   2.013       .  S
O426        C436   1.278       .  A
O427       Cu433   2.012       .  S
O427        C437   1.278       .  A
O428        C438   1.278       .  A
O429       Cu434   2.012       .  S
O429        C438   1.278       .  A
O430        C437   1.278       .  A
O431        C436   1.278       .  A
O432       Cu434   2.013       .  S
O432        C435   1.278       .  A
C435        C519   1.472       .  S
C438        C513   1.471       .  S
O439       Cu447   2.005       .  S
O439        C449   1.277       .  A
O440       Cu447   1.988       .  S
O440        C450   1.275       .  A
O441       Cu447   2.012       .  S
O441        C451   1.278       .  A
O442       Cu447   2.012       .  S
O442        C452   1.278       .  A
O443       Cu448   2.012       .  S
O443        C452   1.278       .  A
O444       Cu448   2.012       .  S
O444        C451   1.278       .  A
O445       Cu448   1.988       .  S
O445        C450   1.275       .  A
O446       Cu448   2.005       .  S
O446        C449   1.277       .  A
Cu447      Cu448   2.377       .  S
C449        C523   1.465       .  S
C450        C453   1.451       .  S
C451        C487   1.472       .  S
C452        C511   1.472       .  S
C453        N454   1.354       .  A
C453        N458   1.354       .  A
N454        C455   1.354       .  A
C455        C471   1.451       .  S
C455        N456   1.353       .  A
N456        C457   1.353       .  A
C457        C484   1.451       .  S
C457        N458   1.354       .  A
O459       Cu467   2.012       .  S
O459        C469   1.278       .  A
O460       Cu467   2.012       .  S
O460        C470   1.278       .  A
O461       Cu467   1.987       .  S
O461        C471   1.275       .  A
O462       Cu467   2.004       .  S
O462        C472   1.277       .  A
O463       Cu468   2.004       .  S
O463        C472   1.277       .  A
O464       Cu468   1.987       .  S
O464        C471   1.275       .  A
O465       Cu468   2.012       .  S
O465        C470   1.278       .  A
O466       Cu468   2.012       .  S
O466        C469   1.278       .  A
Cu467      Cu468   2.377       .  S
C469        C517   1.473       .  S
C470        C499   1.473       .  S
C472        C525   1.465       .  S
O473       Cu481   2.004       .  S
O473        C483   1.277       .  A
O474       Cu481   1.987       .  S
O474        C484   1.275       .  A
O475       Cu481   2.012       .  S
O475        C485   1.278       .  A
O476       Cu481   2.012       .  S
O476        C486   1.278       .  A
O477       Cu482   2.012       .  S
O477        C486   1.278       .  A
O478       Cu482   2.012       .  S
O478        C485   1.278       .  A
O479       Cu482   1.987       .  S
O479        C484   1.275       .  A
O480       Cu482   2.004       .  S
O480        C483   1.277       .  A
Cu481      Cu482   2.377       .  S
C483        C527   1.465       .  S
C485        C493   1.473       .  S
C486        C505   1.473       .  S
C487        N488   1.360       .  A
C487        N492   1.360       .  A
N488        C489   1.360       .  A
C489        N490   1.358       .  A
N490        C491   1.358       .  A
C491        N492   1.360       .  A
C493        N494   1.360       .  A
C493        N498   1.360       .  A
N494        C495   1.360       .  A
C495        N496   1.359       .  A
N496        C497   1.359       .  A
C497        N498   1.360       .  A
C499        N500   1.360       .  A
C499        N504   1.360       .  A
N500        C501   1.360       .  A
C501        N502   1.359       .  A
N502        C503   1.359       .  A
C503        N504   1.360       .  A
C505        N506   1.360       .  A
C505        N510   1.360       .  A
N506        C507   1.360       .  A
C507        N508   1.359       .  A
N508        C509   1.359       .  A
C509        N510   1.360       .  A
C511        N512   1.360       .  A
C511        N516   1.360       .  A
N512        C513   1.360       .  A
C513        N514   1.358       .  A
N514        C515   1.358       .  A
C515        N516   1.360       .  A
C517        N518   1.360       .  A
C517        N522   1.360       .  A
N518        C519   1.360       .  A
C519        N520   1.359       .  A
N520        C521   1.359       .  A
C521        N522   1.360       .  A
C523       N1052   1.358       .  A
N524       C1051   1.358   1_455  A
N524        C525   1.358       .  A
N526       C1055   1.357   1_455  A
C527       N1054   1.357       .  A
C527        N528   1.358       .  A
C529        C547   1.465       .  S
C529        N798   1.358       .  A
N530        C531   1.358       .  A
C531        C581   1.465       .  S
C531        N796   1.357       .  A
N532        C795   1.357   1_545  A
C533        C567   1.465       .  S
C533        N534   1.358       .  A
N534        C793   1.358   1_545  A
O535       Cu543   2.012       .  S
O535        C545   1.278       .  A
O536       Cu543   2.012       .  S
O536        C546   1.278       .  A
O537       Cu543   2.005       .  S
O537        C547   1.277       .  A
O538       Cu543   1.988       .  S
O538        C548   1.275       .  A
O539       Cu544   1.988       .  S
O539        C548   1.275       .  A
O540       Cu544   2.005       .  S
O540        C547   1.277       .  A
O541       Cu544   2.012       .  S
O541        C546   1.278       .  A
O542       Cu544   2.012       .  S
O542        C545   1.278       .  A
Cu543      Cu544   2.377       .  S
C545        C589   1.472       .  S
C546        C595   1.472       .  S
C548        C549   1.451       .  S
C549        N550   1.354       .  A
C549        N554   1.354       .  A
N550        C551   1.354       .  A
C551        C568   1.451       .  S
C551        N552   1.353       .  A
N552        C553   1.353       .  A
C553        C582   1.451       .  S
C553        N554   1.354       .  A
O555       Cu563   2.012       .  S
O555        C565   1.278       .  A
O556       Cu563   2.012       .  S
O556        C566   1.278       .  A
O557       Cu563   2.004       .  S
O557        C567   1.277       .  A
O558       Cu563   1.987       .  S
O558        C568   1.275       .  A
O559       Cu564   1.987       .  S
O559        C568   1.275       .  A
O560       Cu564   2.004       .  S
O560        C567   1.277       .  A
O561       Cu564   2.012       .  S
O561        C566   1.278       .  A
O562       Cu564   2.012       .  S
O562        C565   1.278       .  A
Cu563      Cu564   2.377       .  S
C565        C613   1.473       .  S
C566        C607   1.473       .  S
O569       Cu577   2.012       .  S
O569        C579   1.278       .  A
O570       Cu577   2.012       .  S
O570        C580   1.278       .  A
O571       Cu577   2.004       .  S
O571        C581   1.277       .  A
O572       Cu577   1.987       .  S
O572        C582   1.275       .  A
O573       Cu578   1.987       .  S
O573        C582   1.275       .  A
O574       Cu578   2.004       .  S
O574        C581   1.277       .  A
O575       Cu578   2.012       .  S
O575        C580   1.278       .  A
O576       Cu578   2.012       .  S
O576        C579   1.278       .  A
Cu577      Cu578   2.377       .  S
C579        C601   1.473       .  S
C580        C583   1.473       .  S
C583        N584   1.360       .  A
C583        N588   1.360       .  A
N584        C585   1.360       .  A
C585        C657   1.472       .  S
C585        N586   1.359       .  A
N586        C587   1.359       .  A
C587        C700   1.472       .  S
C587        N588   1.360       .  A
C589        N590   1.360       .  A
C589        N594   1.360       .  A
N590        C591   1.360       .  A
C591        C701   1.471       .  S
C591        N592   1.358       .  A
N592        C593   1.358       .  A
C593        C674   1.471       .  S
C593        N594   1.360       .  A
C595        N596   1.360       .  A
C595        N600   1.360       .  A
N596        C597   1.360       .  A
C597        C645   1.471       .  S
C597        N598   1.358       .  A
N598        C599   1.358       .  A
C599        C686   1.471       .  S
C599        N600   1.360       .  A
C601        N602   1.360       .  A
C601        N606   1.360       .  A
N602        C603   1.360       .  A
C603        C632   1.472       .  S
C603        N604   1.359       .  A
N604        C605   1.359       .  A
C605        C687   1.472       .  S
C605        N606   1.360       .  A
C607        N608   1.360       .  A
C607        N612   1.360       .  A
N608        C609   1.360       .  A
C609        C660   1.472       .  S
C609        N610   1.359       .  A
N610        C611   1.359       .  A
C611        C671   1.472       .  S
C611        N612   1.360       .  A
C613        N614   1.360       .  A
C613        N618   1.360       .  A
N614        C615   1.360       .  A
C615        C644   1.472       .  S
C615        N616   1.359       .  A
N616        C617   1.359       .  A
C617        C629   1.472       .  S
C617        N618   1.360       .  A
O619       Cu627   2.015       .  S
O619        C629   1.278       .  A
O620       Cu627   2.012       .  S
O620        C630   1.278   1_556  A
O621       Cu627   2.012       .  S
O621        C631   1.278   1_556  A
O622       Cu627   2.015       .  S
O622        C632   1.278       .  A
O623       Cu628   2.012       .  S
O623        C632   1.278   1_554  A
O624       Cu628   2.015       .  S
O624        C631   1.278       .  A
O625       Cu628   2.015       .  S
O625        C630   1.278       .  A
O626       Cu628   2.012       .  S
O626        C629   1.278   1_554  A
Cu627      Cu628   2.375   1_556  S
C630        C761   1.472       .  S
C631        C767   1.472       .  S
O633        C643   1.278       .  A
O634       Cu641   2.013       .  S
O634        C644   1.278   1_554  A
O635       Cu641   2.012       .  S
O635        C645   1.278   1_554  A
O636        C646   1.278       .  A
O637       Cu642   2.012       .  S
O637        C646   1.278   1_556  A
O638        C645   1.278       .  A
O639        C644   1.278       .  A
O640       Cu642   2.013       .  S
O640        C643   1.278   1_556  A
C643        C759   1.472       .  S
C646        C755   1.471       .  S
O647       Cu655   2.015       .  S
O647        C657   1.278       .  A
O648       Cu655   2.012       .  S
O648        C658   1.278       .  A
O649       Cu655   2.012       .  S
O649        C659   1.278       .  A
O650       Cu655   2.015       .  S
O650        C660   1.278       .  A
O651       Cu656   2.012       .  S
O651        C660   1.278       .  A
O652       Cu656   2.015       .  S
O652        C659   1.278       .  A
O653       Cu656   2.015       .  S
O653        C658   1.278       .  A
O654       Cu656   2.012       .  S
O654        C657   1.278       .  A
Cu655      Cu656   2.375       .  S
C658        C785   1.472       .  S
C659        C773   1.472       .  S
O661        C671   1.278       .  A
O662       Cu669   2.013       .  S
O662        C672   1.278       .  A
O663       Cu669   2.012       .  S
O663        C673   1.278       .  A
O664        C674   1.278       .  A
O665       Cu670   2.012       .  S
O665        C674   1.278       .  A
O666        C673   1.278       .  A
O667        C672   1.278       .  A
O668       Cu670   2.013       .  S
O668        C671   1.278       .  A
C672        C771   1.472       .  S
C673        C779   1.471       .  S
O675       Cu947   2.014   1_545  S
O675        C685   1.278       .  A
O676       Cu683   2.012       .  S
O676        C686   1.278   1_554  A
O677       Cu683   2.013       .  S
O677        C687   1.278   1_554  A
O678       Cu947   2.015   1_545  S
O678        C688   1.278       .  A
O679       Cu684   2.013       .  S
O679        C688   1.278   1_556  A
O680       Cu948   2.015       .  S
O680        C687   1.278       .  A
O681       Cu948   2.014       .  S
O681        C686   1.278       .  A
O682       Cu684   2.012       .  S
O682        C685   1.278   1_556  A
Cu683       O939   2.014       .  S
Cu683       O942   2.015       .  S
Cu683      Cu948   2.375   1_554  S
Cu684       O944   2.015   1_545  S
Cu684       O945   2.014   1_545  S
Cu684      Cu947   2.375   1_546  S
C685        C753   1.471       .  S
C688        C765   1.472       .  S
O689       Cu961   2.015   1_545  S
O689        C699   1.278       .  A
O690       Cu697   2.013       .  S
O690        C700   1.278       .  A
O691       Cu697   2.012       .  S
O691        C701   1.278       .  A
O692       Cu961   2.015   1_545  S
O692        C702   1.278       .  A
O693       Cu698   2.012       .  S
O693        C702   1.278       .  A
O694       Cu962   2.015       .  S
O694        C701   1.278       .  A
O695       Cu962   2.015       .  S
O695        C700   1.278       .  A
O696       Cu698   2.013       .  S
O696        C699   1.278       .  A
Cu697       O953   2.015       .  S
Cu697       O956   2.015       .  S
Cu697      Cu962   2.375       .  S
Cu698       O958   2.015   1_545  S
Cu698       O959   2.015   1_545  S
Cu698      Cu961   2.375   1_545  S
C699        C783   1.472       .  S
C702        C777   1.471       .  S
O703       Cu711   2.005       .  S
O703        C713   1.277       .  A
O704       Cu711   1.988       .  S
O704        C714   1.275       .  A
O705       Cu711   2.012       .  S
O705        C715   1.278       .  A
O706       Cu711   2.012       .  S
O706        C716   1.278       .  A
O707       Cu712   2.012       .  S
O707        C716   1.278       .  A
O708       Cu712   2.012       .  S
O708        C715   1.278       .  A
O709       Cu712   1.988       .  S
O709        C714   1.275       .  A
O710       Cu712   2.005       .  S
O710        C713   1.277       .  A
Cu711      Cu712   2.377       .  S
C713        C787   1.465       .  S
C714        C717   1.451       .  S
C715        C751   1.472       .  S
C716        C775   1.472       .  S
C717        N718   1.354       .  A
C717        N722   1.354       .  A
N718        C719   1.354       .  A
C719        C735   1.451       .  S
C719        N720   1.353       .  A
N720        C721   1.353       .  A
C721        C748   1.451       .  S
C721        N722   1.354       .  A
O723       Cu731   2.012       .  S
O723        C733   1.278       .  A
O724       Cu731   2.012       .  S
O724        C734   1.278       .  A
O725       Cu731   1.987       .  S
O725        C735   1.275       .  A
O726       Cu731   2.004       .  S
O726        C736   1.277       .  A
O727       Cu732   2.004       .  S
O727        C736   1.277       .  A
O728       Cu732   1.987       .  S
O728        C735   1.275       .  A
O729       Cu732   2.012       .  S
O729        C734   1.278       .  A
O730       Cu732   2.012       .  S
O730        C733   1.278       .  A
Cu731      Cu732   2.377       .  S
C733        C781   1.473       .  S
C734        C763   1.473       .  S
C736        C789   1.465       .  S
O737       Cu745   2.004       .  S
O737        C747   1.277       .  A
O738       Cu745   1.987       .  S
O738        C748   1.275       .  A
O739       Cu745   2.012       .  S
O739        C749   1.278       .  A
O740       Cu745   2.012       .  S
O740        C750   1.278       .  A
O741       Cu746   2.012       .  S
O741        C750   1.278       .  A
O742       Cu746   2.012       .  S
O742        C749   1.278       .  A
O743       Cu746   1.987       .  S
O743        C748   1.275       .  A
O744       Cu746   2.004       .  S
O744        C747   1.277       .  A
Cu745      Cu746   2.377       .  S
C747        C791   1.465       .  S
C749        C757   1.473       .  S
C750        C769   1.473       .  S
C751        N752   1.360       .  A
C751        N756   1.360       .  A
N752        C753   1.360       .  A
C753        N754   1.358       .  A
N754        C755   1.358       .  A
C755        N756   1.360       .  A
C757        N758   1.360       .  A
C757        N762   1.360       .  A
N758        C759   1.360       .  A
C759        N760   1.359       .  A
N760        C761   1.359       .  A
C761        N762   1.360       .  A
C763        N764   1.360       .  A
C763        N768   1.360       .  A
N764        C765   1.360       .  A
C765        N766   1.359       .  A
N766        C767   1.359       .  A
C767        N768   1.360       .  A
C769        N770   1.360       .  A
C769        N774   1.360       .  A
N770        C771   1.360       .  A
C771        N772   1.359       .  A
N772        C773   1.359       .  A
C773        N774   1.360       .  A
C775        N776   1.360       .  A
C775        N780   1.360       .  A
N776        C777   1.360       .  A
C777        N778   1.358       .  A
N778        C779   1.358       .  A
C779        N780   1.360       .  A
C781        N782   1.360       .  A
C781        N786   1.360       .  A
N782        C783   1.360       .  A
C783        N784   1.359       .  A
N784        C785   1.359       .  A
C785        N786   1.360       .  A
C787       N1056   1.358   1_545  A
N788        C789   1.358       .  A
C789       N1054   1.357   1_545  A
N790       C1053   1.357       .  A
C791        N792   1.358       .  A
N792       C1051   1.358       .  A
C793        C811   1.465       .  S
N794        C795   1.358       .  A
C795        C845   1.465       .  S
C797        C831   1.465       .  S
C797        N798   1.358       .  A
O799       Cu807   2.012       .  S
O799        C809   1.278       .  A
O800       Cu807   2.012       .  S
O800        C810   1.278       .  A
O801       Cu807   2.005       .  S
O801        C811   1.277       .  A
O802       Cu807   1.988       .  S
O802        C812   1.275       .  A
O803       Cu808   1.988       .  S
O803        C812   1.275       .  A
O804       Cu808   2.005       .  S
O804        C811   1.277       .  A
O805       Cu808   2.012       .  S
O805        C810   1.278       .  A
O806       Cu808   2.012       .  S
O806        C809   1.278       .  A
Cu807      Cu808   2.377       .  S
C809        C853   1.472       .  S
C810        C859   1.472       .  S
C812        C813   1.451       .  S
C813        N814   1.354       .  A
C813        N818   1.354       .  A
N814        C815   1.354       .  A
C815        C832   1.451       .  S
C815        N816   1.353       .  A
N816        C817   1.353       .  A
C817        C846   1.451       .  S
C817        N818   1.354       .  A
O819       Cu827   2.012       .  S
O819        C829   1.278       .  A
O820       Cu827   2.012       .  S
O820        C830   1.278       .  A
O821       Cu827   2.004       .  S
O821        C831   1.277       .  A
O822       Cu827   1.987       .  S
O822        C832   1.275       .  A
O823       Cu828   1.987       .  S
O823        C832   1.275       .  A
O824       Cu828   2.004       .  S
O824        C831   1.277       .  A
O825       Cu828   2.012       .  S
O825        C830   1.278       .  A
O826       Cu828   2.012       .  S
O826        C829   1.278       .  A
Cu827      Cu828   2.377       .  S
C829        C877   1.473       .  S
C830        C871   1.473       .  S
O833       Cu841   2.012       .  S
O833        C843   1.278       .  A
O834       Cu841   2.012       .  S
O834        C844   1.278       .  A
O835       Cu841   2.004       .  S
O835        C845   1.277       .  A
O836       Cu841   1.987       .  S
O836        C846   1.275       .  A
O837       Cu842   1.987       .  S
O837        C846   1.275       .  A
O838       Cu842   2.004       .  S
O838        C845   1.277       .  A
O839       Cu842   2.012       .  S
O839        C844   1.278       .  A
O840       Cu842   2.012       .  S
O840        C843   1.278       .  A
Cu841      Cu842   2.377       .  S
C843        C865   1.473       .  S
C844        C847   1.473       .  S
C847        N848   1.360       .  A
C847        N852   1.360       .  A
N848        C849   1.360       .  A
C849        C921   1.472       .  S
C849        N850   1.359       .  A
N850        C851   1.359       .  A
C851        C964   1.472       .  S
C851        N852   1.360       .  A
C853        N854   1.360       .  A
C853        N858   1.360       .  A
N854        C855   1.360       .  A
C855        C965   1.471       .  S
C855        N856   1.358       .  A
N856        C857   1.358       .  A
C857        C938   1.471       .  S
C857        N858   1.360       .  A
C859        N860   1.360       .  A
C859        N864   1.360       .  A
N860        C861   1.360       .  A
C861        C909   1.471       .  S
C861        N862   1.358       .  A
N862        C863   1.358       .  A
C863        C950   1.471       .  S
C863        N864   1.360       .  A
C865        N866   1.360       .  A
C865        N870   1.360       .  A
N866        C867   1.360       .  A
C867        C896   1.472       .  S
C867        N868   1.359       .  A
N868        C869   1.359       .  A
C869        C951   1.472       .  S
C869        N870   1.360       .  A
C871        N872   1.360       .  A
C871        N876   1.360       .  A
N872        C873   1.360       .  A
C873        C924   1.472       .  S
C873        N874   1.359       .  A
N874        C875   1.359       .  A
C875        C935   1.472       .  S
C875        N876   1.360       .  A
C877        N878   1.360       .  A
C877        N882   1.360       .  A
N878        C879   1.360       .  A
C879        C908   1.472       .  S
C879        N880   1.359       .  A
N880        C881   1.359       .  A
C881        C893   1.472       .  S
C881        N882   1.360       .  A
O883       Cu891   2.015       .  S
O883        C893   1.278       .  A
O884       Cu891   2.012       .  S
O884        C894   1.278   1_556  A
O885       Cu891   2.012       .  S
O885        C895   1.278   1_556  A
O886       Cu891   2.015       .  S
O886        C896   1.278       .  A
O887       Cu892   2.012       .  S
O887        C896   1.278   1_554  A
O888       Cu892   2.015       .  S
O888        C895   1.278       .  A
O889       Cu892   2.015       .  S
O889        C894   1.278       .  A
O890       Cu892   2.012       .  S
O890        C893   1.278   1_554  A
Cu891      Cu892   2.375   1_556  S
C894       C1025   1.472       .  S
C895       C1031   1.472       .  S
O897        C907   1.278       .  A
O898       Cu905   2.013       .  S
O898        C908   1.278   1_554  A
O899       Cu905   2.012       .  S
O899        C909   1.278   1_554  A
O900        C910   1.278       .  A
O901       Cu906   2.012       .  S
O901        C910   1.278   1_556  A
O902        C909   1.278       .  A
O903        C908   1.278       .  A
O904       Cu906   2.013       .  S
O904        C907   1.278   1_556  A
C907       C1023   1.472       .  S
C910       C1019   1.471       .  S
O911       Cu919   2.015       .  S
O911        C921   1.278       .  A
O912       Cu919   2.012       .  S
O912        C922   1.278       .  A
O913       Cu919   2.012       .  S
O913        C923   1.278       .  A
O914       Cu919   2.015       .  S
O914        C924   1.278       .  A
O915       Cu920   2.012       .  S
O915        C924   1.278       .  A
O916       Cu920   2.015       .  S
O916        C923   1.278       .  A
O917       Cu920   2.015       .  S
O917        C922   1.278       .  A
O918       Cu920   2.012       .  S
O918        C921   1.278       .  A
Cu919      Cu920   2.375       .  S
C922       C1049   1.472       .  S
C923       C1037   1.472       .  S
O925        C935   1.278       .  A
O926       Cu933   2.013       .  S
O926        C936   1.278       .  A
O927       Cu933   2.012       .  S
O927        C937   1.278       .  A
O928        C938   1.278       .  A
O929       Cu934   2.012       .  S
O929        C938   1.278       .  A
O930        C937   1.278       .  A
O931        C936   1.278       .  A
O932       Cu934   2.013       .  S
O932        C935   1.278       .  A
C936       C1035   1.472       .  S
C937       C1043   1.471       .  S
O939        C949   1.278       .  A
O940       Cu947   2.012       .  S
O940        C950   1.278   1_554  A
O941       Cu947   2.013       .  S
O941        C951   1.278   1_554  A
O942        C952   1.278       .  A
O943       Cu948   2.013       .  S
O943        C952   1.278   1_556  A
O944        C951   1.278       .  A
O945        C950   1.278       .  A
O946       Cu948   2.012       .  S
O946        C949   1.278   1_556  A
C949       C1017   1.471       .  S
C952       C1029   1.472       .  S
O953        C963   1.278       .  A
O954       Cu961   2.013       .  S
O954        C964   1.278       .  A
O955       Cu961   2.012       .  S
O955        C965   1.278       .  A
O956        C966   1.278       .  A
O957       Cu962   2.012       .  S
O957        C966   1.278       .  A
O958        C965   1.278       .  A
O959        C964   1.278       .  A
O960       Cu962   2.013       .  S
O960        C963   1.278       .  A
C963       C1047   1.472       .  S
C966       C1041   1.471       .  S
O967       Cu975   2.005       .  S
O967        C977   1.277       .  A
O968       Cu975   1.988       .  S
O968        C978   1.275       .  A
O969       Cu975   2.012       .  S
O969        C979   1.278       .  A
O970       Cu975   2.012       .  S
O970        C980   1.278       .  A
O971       Cu976   2.012       .  S
O971        C980   1.278       .  A
O972       Cu976   2.012       .  S
O972        C979   1.278       .  A
O973       Cu976   1.988       .  S
O973        C978   1.275       .  A
O974       Cu976   2.005       .  S
O974        C977   1.277       .  A
Cu975      Cu976   2.377       .  S
C977       C1051   1.465       .  S
C978        C981   1.451       .  S
C979       C1015   1.472       .  S
C980       C1039   1.472       .  S
C981        N982   1.354       .  A
C981        N986   1.354       .  A
N982        C983   1.354       .  A
C983        C999   1.451       .  S
C983        N984   1.353       .  A
N984        C985   1.353       .  A
C985       C1012   1.451       .  S
C985        N986   1.354       .  A
O987       Cu995   2.012       .  S
O987        C997   1.278       .  A
O988       Cu995   2.012       .  S
O988        C998   1.278       .  A
O989       Cu995   1.987       .  S
O989        C999   1.275       .  A
O990       Cu995   2.004       .  S
O990       C1000   1.277       .  A
O991       Cu996   2.004       .  S
O991       C1000   1.277       .  A
O992       Cu996   1.987       .  S
O992        C999   1.275       .  A
O993       Cu996   2.012       .  S
O993        C998   1.278       .  A
O994       Cu996   2.012       .  S
O994        C997   1.278       .  A
Cu995      Cu996   2.377       .  S
C997       C1045   1.473       .  S
C998       C1027   1.473       .  S
C1000      C1053   1.465       .  S
O1001     Cu1009   2.004       .  S
O1001      C1011   1.277       .  A
O1002     Cu1009   1.987       .  S
O1002      C1012   1.275       .  A
O1003     Cu1009   2.012       .  S
O1003      C1013   1.278       .  A
O1004     Cu1009   2.012       .  S
O1004      C1014   1.278       .  A
O1005     Cu1010   2.012       .  S
O1005      C1014   1.278       .  A
O1006     Cu1010   2.012       .  S
O1006      C1013   1.278       .  A
O1007     Cu1010   1.987       .  S
O1007      C1012   1.275       .  A
O1008     Cu1010   2.004       .  S
O1008      C1011   1.277       .  A
Cu1009    Cu1010   2.377       .  S
C1011      C1055   1.465       .  S
C1013      C1021   1.473       .  S
C1014      C1033   1.473       .  S
C1015      N1016   1.360       .  A
C1015      N1020   1.360       .  A
N1016      C1017   1.360       .  A
C1017      N1018   1.358       .  A
N1018      C1019   1.358       .  A
C1019      N1020   1.360       .  A
C1021      N1022   1.360       .  A
C1021      N1026   1.360       .  A
N1022      C1023   1.360       .  A
C1023      N1024   1.359       .  A
N1024      C1025   1.359       .  A
C1025      N1026   1.360       .  A
C1027      N1028   1.360       .  A
C1027      N1032   1.360       .  A
N1028      C1029   1.360       .  A
C1029      N1030   1.359       .  A
N1030      C1031   1.359       .  A
C1031      N1032   1.360       .  A
C1033      N1034   1.360       .  A
C1033      N1038   1.360       .  A
N1034      C1035   1.360       .  A
C1035      N1036   1.359       .  A
N1036      C1037   1.359       .  A
C1037      N1038   1.360       .  A
C1039      N1040   1.360       .  A
C1039      N1044   1.360       .  A
N1040      C1041   1.360       .  A
C1041      N1042   1.358       .  A
N1042      C1043   1.358       .  A
C1043      N1044   1.360       .  A
C1045      N1046   1.360       .  A
C1045      N1050   1.360       .  A
N1046      C1047   1.360       .  A
C1047      N1048   1.359       .  A
N1048      C1049   1.359       .  A
C1049      N1050   1.360       .  A
N1052      C1053   1.358       .  A
C1055      N1056   1.358       .  A
