geometry optimzed in LAMMPS
_audit_creation_date              2020-12-01 
_audit_creation_method            'lammps2cif' 
_symmetry_space_group_name_H-M    'P1' 
_symmetry_Int_Tables_number       1 
_symmetry_cell_setting            triclinic 
loop_ 
_symmetry_equiv_pos_as_xyz 
  x,y,z 
_cell_length_a                    56.38307064 
_cell_length_b                    56.28268578975455 
_cell_length_c                    35.262785127140084 
_cell_angle_alpha                 90.04603105190708 
_cell_angle_beta                  90.19225833855488 
_cell_angle_gamma                 90.42331371034167 
loop_ 
_atom_site_label 
_atom_site_type_symbol 
_atom_site_fract_x 
_atom_site_fract_y 
_atom_site_fract_z 
_atom_site_charge 
N1          N  0.28095841  0.50008041  0.06031353    -0.02400
C2          C  0.28171203  0.48083082  0.03727800     0.00100
C3          C  0.27722100  0.48722919  0.00007883    -0.22700
C4          C  0.27310633  0.51128087  0.00035343    -0.22900
C5          C  0.27506327  0.51850959  0.03766751     0.00000
H6          H  0.27735066  0.47583510  0.97537260     0.13800
H7          H  0.26912345  0.52231118  0.97608174     0.13900
N8          N  0.29627997  0.49565425  0.34391580    -0.02400
C9          C  0.29751366  0.51336056  0.37038431     0.00100
C10         C  0.30138613  0.50380875  0.40596095    -0.22700
C11         C  0.30307683  0.47968677  0.40146568    -0.22900
C12         C  0.29998895  0.47505748  0.36331659     0.00000
H13         H  0.30294853  0.51345606  0.43243064     0.13800
H14         H  0.30641347  0.46683538  0.42363620     0.13900
N15         N  0.04640117  0.72192535  0.31447380    -0.02400
C16         C  0.06700921  0.71990190  0.29503614     0.00100
C17         C  0.06293949  0.71810098  0.25655480    -0.22700
C18         C  0.03886507  0.71912622  0.25171265    -0.22900
C19         C  0.02916341  0.72116377  0.28748988     0.00000
H20         H  0.07609269  0.71635567  0.23445997     0.13800
H21         H  0.02946873  0.71850318  0.22496199     0.13900
N22         N  0.04311211  0.75287900  0.09877056    -0.02400
C23         C  0.06234663  0.75751253  0.12131496     0.00100
C24         C  0.05513787  0.76232307  0.15793369    -0.22700
C25         C  0.03090143  0.76073196  0.15823600    -0.22900
C26         C  0.02381988  0.75492370  0.12179287     0.00000
H27         H  0.06638361  0.76666103  0.18193962     0.13800
H28         H  0.01959896  0.76413336  0.18234732     0.13900
O29         O  0.30611043  0.76659643  0.31332363    -0.79900
O30         O  0.31131045  0.75906859  0.48507598    -0.64500
O31         O  0.31374077  0.74176250  0.38110907    -1.11200
C32         C  0.23225667  0.72854025  0.39517806     1.07000
O33         O  0.29048374  0.72658141  0.49804098    -0.77800
O34         O  0.28024548  0.69673664  0.43988707    -0.65300
Ni35       Ni  0.33239896  0.75939623  0.34617716     1.34900
C36         C  0.28233680  0.69104655  0.40523091     0.85800
O37         O  0.34754238  0.75402384  0.43666211    -0.78300
O38         O  0.35978811  0.75290523  0.37615071    -0.88600
C39         C  0.30119238  0.74540515  0.50868105     0.85300
O40         O  0.33060089  0.79040320  0.36852468    -0.66800
O41         O  0.23832484  0.72080116  0.42779693    -0.86100
C42         C  0.32094756  0.79832078  0.39841752     0.86200
C43         C  0.36389201  0.75323418  0.41177080     1.07700
H44         H  0.27240511  0.76225729  0.43225438     0.39500
O45         O  0.28009418  0.74709442  0.42814882    -1.08700
O46         O  0.28075489  0.70611592  0.37842967    -0.65400
Ni47       Ni  0.28008423  0.74058400  0.37534028     1.26300
O48         O  0.31098399  0.78475726  0.42271353    -0.65600
O49         O  0.24646563  0.73923263  0.37275475    -0.77900
C50         C  0.29182337  0.75110220  0.30004831     0.85600
O51         O  0.28138816  0.73634935  0.32164727    -0.65100
Ni52       Ni  0.26547505  0.72433609  0.46090889     1.27400
Ni53       Ni  0.31364429  0.75099537  0.43287673     1.26100
H54         H  0.31973070  0.72569590  0.38022464     0.40100
O55         O  0.26987972  0.73893748  0.24594428    -0.79900
O56         O  0.28415832  0.73540000  0.07027120    -0.64500
O57         O  0.29289832  0.73009541  0.17673732    -1.11200
C58         C  0.30540647  0.81355567  0.16685495     1.07000
O59         O  0.31631996  0.75784884  0.06415705    -0.77800
O60         O  0.34068679  0.77631786  0.12325405    -0.65300
Ni61       Ni  0.26986398  0.71434445  0.20771674     1.34900
C62         C  0.34684376  0.76666407  0.15426404     0.85800
O63         O  0.28399415  0.69894244  0.11786213    -0.78300
O64         O  0.26877720  0.68747409  0.17392388    -0.88600
C65         C  0.30025047  0.74465879  0.04995731     0.85300
O66         O  0.24215569  0.72794022  0.18488342    -0.66800
O67         O  0.30767015  0.81065201  0.13122003    -0.86100
C68         C  0.23741895  0.73460228  0.15121562     0.86200
C69         C  0.27556347  0.68327650  0.14013474     1.07700
H70         H  0.27552712  0.77281097  0.12939789     0.39500
O71         O  0.29089259  0.76548892  0.13157426    -1.08700
O72         O  0.33180779  0.75933559  0.17861273    -0.65400
Ni73       Ni  0.29780804  0.76325790  0.18418379     1.26300
O74         O  0.25318852  0.73583409  0.12550196    -0.65600
O75         O  0.30220234  0.79653639  0.19012785    -0.77900
C76         C  0.28800660  0.74985239  0.25893821     0.85600
O77         O  0.30308030  0.75947268  0.23707728    -0.65100
Ni78       Ni  0.31127432  0.78343629  0.09933890     1.27400
Ni79       Ni  0.28738344  0.73223659  0.12362471     1.26100
H80         H  0.30769156  0.72197363  0.18050805     0.40100
N81         N  0.54480075  0.77028084  0.17305364    -0.02400
C82         C  0.52452654  0.76494926  0.15325301     0.00100
C83         C  0.52960633  0.76212680  0.11522544    -0.22700
C84         C  0.55358814  0.76516479  0.11130491    -0.22900
C85         C  0.56269913  0.77006962  0.14695837     0.00000
H86         H  0.51718669  0.75809856  0.09261920     0.13800
H87         H  0.56346186  0.76270081  0.08536977     0.13900
N88         N  0.54909273  0.79638527  0.45565685    -0.02400
C89         C  0.53016683  0.79552168  0.47911871     0.00100
C90         C  0.53726959  0.79766328  0.51652481    -0.22700
C91         C  0.56157952  0.79960200  0.51613402    -0.22900
C92         C  0.56825625  0.79850820  0.47856387     0.00000
H93         H  0.52616949  0.79618294  0.54140358     0.13800
H94         H  0.57319520  0.80068562  0.54050601     0.13900
O95         O  0.80473390  0.73261848  0.46013672    -0.79900
O96         O  0.80640112  0.74483195  0.29025158    -0.64500
O97         O  0.81336382  0.75904161  0.39414469    -1.11200
C98         C  0.73377810  0.78050713  0.38533879     1.07000
O99         O  0.78781748  0.77864836  0.27770600    -0.77800
O100        O  0.78515896  0.80815693  0.33905640    -0.65300
Ni101      Ni  0.83110154  0.73880352  0.42648004     1.34900
C102        C  0.78905452  0.81317250  0.37372618     0.85800
O103        O  0.84382186  0.74546446  0.33631955    -0.78300
O104        O  0.85865503  0.74459930  0.39572066    -0.88600
C105        C  0.79770378  0.75954738  0.26704258     0.85300
O106        O  0.82617966  0.70864205  0.40131098    -0.66800
O107        O  0.74040700  0.78936521  0.35381580    -0.86100
C108        C  0.81491662  0.70232704  0.37157183     0.86200
C109        C  0.86106022  0.74496297  0.35972784     1.07700
H110        H  0.76863268  0.74400733  0.34413766     0.39500
O111        O  0.77809197  0.75824588  0.34869026    -1.08700
O112        O  0.78528825  0.79797282  0.40011927    -0.65400
Ni113      Ni  0.78025760  0.76343751  0.40172570     1.26300
O114        O  0.80499346  0.71754262  0.34993087    -0.65600
O115        O  0.74705442  0.76786764  0.40638330    -0.77900
C116        C  0.79173021  0.74853017  0.47505421     0.85600
O117        O  0.78328854  0.76548179  0.45548338    -0.65100
Ni118      Ni  0.76547670  0.78328540  0.31822916     1.27400
Ni119      Ni  0.81077300  0.75130340  0.34218660     1.26100
H120        H  0.82115814  0.77432072  0.39556397     0.40100
O121        O  0.76933488  0.75693007  0.03009075    -0.79900
O122        O  0.78751842  0.76640049  0.20349551    -0.64500
O123        O  0.79384079  0.76818704  0.09668403    -1.11200
C124        C  0.81934163  0.68949980  0.10334472     1.07000
O125        O  0.81306591  0.73755912  0.21713626    -0.77800
O126        O  0.84215863  0.74159989  0.15627731    -0.65300
Ni127      Ni  0.76973426  0.78252545  0.06625829     1.34900
C128        C  0.84787932  0.74530082  0.12196384     0.85800
O129        O  0.78663176  0.80105451  0.15370519    -0.78300
O130        O  0.76888624  0.81003664  0.09855826    -0.88600
C131        C  0.79962455  0.75442118  0.22676424     0.85300
O132        O  0.74267257  0.76902481  0.09119177    -0.66800
O133        O  0.82825212  0.69697885  0.13418942    -0.86100
C134        C  0.73896113  0.76463348  0.12602735     0.86200
C135        C  0.77679492  0.81573414  0.13129858     1.07700
H136        H  0.77930685  0.72516756  0.14884243     0.39500
O137        O  0.79400943  0.73349955  0.14399704    -1.08700
O138        O  0.83355335  0.74096606  0.09447620    -0.65400
Ni139      Ni  0.79935904  0.73506950  0.09035236     1.26300
O140        O  0.75560859  0.76394631  0.15053078    -0.65600
O141        O  0.80432609  0.70163403  0.08488660    -0.77900
C142        C  0.78778193  0.74769518  0.01588207     0.85600
O143        O  0.80346157  0.73839595  0.03691872    -0.65100
Ni144      Ni  0.81909890  0.71906555  0.17293346     1.27400
Ni145      Ni  0.78994632  0.76743786  0.14999682     1.26100
H146        H  0.80839228  0.77684695  0.09145851     0.40100
N147        N  0.87038401  0.50717174  0.05166192    -0.02400
C148        C  0.87067832  0.52594951  0.02748795     0.00100
C149        C  0.87855015  0.51904791  0.99216133    -0.22700
C150        C  0.88257077  0.49504760  0.99418592    -0.22900
C151        C  0.87734399  0.48811766  0.03086193     0.00000
H152        H  0.88005597  0.53006767  0.96713306     0.13800
H153        H  0.88741515  0.48360234  0.97082416     0.13900
N154        N  0.81271304  0.50630146  0.31989182    -0.02400
C155        C  0.80391290  0.52479083  0.34042700     0.00100
C156        C  0.79805146  0.51693463  0.37642667    -0.22700
C157        C  0.80337439  0.49310779  0.37805354    -0.22900
C158        C  0.81254510  0.48700459  0.34317284     0.00000
H159        H  0.79153951  0.52758961  0.39965946     0.13800
H160        H  0.80067197  0.48141918  0.40203624     0.13900
N161        N  0.81909212  0.00818108  0.41734733    -0.02400
C162        C  0.81765953  0.98834856  0.39509452     0.00100
C163        C  0.82173572  0.99440657  0.35772710    -0.22700
C164        C  0.82539393  0.01862746  0.35678045    -0.22900
C165        C  0.82365283  0.02682835  0.39367223     0.00000
H166        H  0.82188037  0.98247578  0.33364816     0.13800
H167        H  0.82802918  0.02922801  0.33155062     0.13900
N168        N  0.78195165  0.00451505  0.20123977    -0.02400
C169        C  0.78271019  0.98423612  0.22175069     0.00100
C170        C  0.78538082  0.98916732  0.25986150    -0.22700
C171        C  0.78663947  0.01354663  0.26292918    -0.22900
C172        C  0.78475984  0.02258657  0.22649170     0.00000
H173        H  0.78678394  0.97646242  0.28275699     0.13800
H174        H  0.79011164  0.02337095  0.28871952     0.13900
O175        O  0.80798068  0.23645905  0.28412834    -0.79900
O176        O  0.80764432  0.24589988  0.45961435    -0.64500
O177        O  0.80079857  0.25980486  0.35465071    -1.11200
C178        C  0.88187497  0.27631617  0.36220024     1.07000
O179        O  0.82875832  0.27878880  0.47082532    -0.77800
O180        O  0.83269724  0.30792508  0.40962953    -0.65300
Ni181      Ni  0.78313482  0.23922168  0.32150994     1.34900
C182        C  0.82982154  0.31263879  0.37475065     0.85800
O183        O  0.77015798  0.24627777  0.41366643    -0.78300
O184        O  0.75620957  0.24027593  0.35454295    -0.88600
C185        C  0.81770893  0.26037011  0.48225364     0.85300
O186        O  0.79236806  0.20933474  0.34270340    -0.66800
O187        O  0.87604873  0.28668519  0.39302126    -0.86100
C188        C  0.80191463  0.20323212  0.37386868     0.86200
C189        C  0.75353224  0.24153750  0.39033025     1.07700
H190        H  0.84490325  0.24293360  0.40451455     0.39500
O191        O  0.83621101  0.25754711  0.40009139    -1.08700
O192        O  0.83223182  0.29699979  0.34906410    -0.65400
Ni193      Ni  0.83417333  0.26274129  0.34727795     1.26300
O194        O  0.80793228  0.21832711  0.39926585    -0.65600
O195        O  0.86734639  0.26448770  0.34213247    -0.77900
C196        C  0.82234035  0.25236091  0.27251702     0.85600
O197        O  0.83167291  0.26726996  0.29464631    -0.65100
Ni198      Ni  0.85091744  0.28208629  0.42972128     1.27400
Ni199      Ni  0.80325778  0.25203219  0.40716078     1.26100
H200        H  0.79359364  0.27545085  0.35282959     0.40100
O201        O  0.84583836  0.26593481  0.22154498    -0.79900
O202        O  0.83380945  0.26901776  0.04384943    -0.64500
O203        O  0.82439539  0.27401206  0.15013705    -1.11200
C204        C  0.80947960  0.19116443  0.14208211     1.07000
O205        O  0.80321687  0.24473523  0.03387891    -0.77800
O206        O  0.77570573  0.23409336  0.09306378    -0.65300
Ni207      Ni  0.84878221  0.28862265  0.18059339     1.34900
C208        C  0.77054912  0.24187747  0.12572634     0.85800
O209        O  0.83296288  0.30567571  0.09151730    -0.78300
O210        O  0.85310025  0.31439782  0.14485256    -0.88600
C211        C  0.81959542  0.25823333  0.02182868     0.85300
O212        O  0.87479603  0.27082348  0.15987614    -0.66800
O213        O  0.80350690  0.19502988  0.10780645    -0.86100
C214        C  0.87938997  0.26678594  0.12517387     0.86200
C215        C  0.84449356  0.32006190  0.11259502     1.07700
H216        H  0.84160127  0.23105228  0.10136989     0.39500
O217        O  0.82637539  0.23856683  0.10432626    -1.08700
O218        O  0.78598014  0.24437783  0.15192497    -0.65400
Ni219      Ni  0.81997458  0.24068843  0.15720083     1.26300
O220        O  0.86384567  0.26898608  0.09919771    -0.65600
O221        O  0.81695260  0.20728538  0.16427133    -0.77900
C222        C  0.82773864  0.25410565  0.23228706     0.85600
O223        O  0.81383601  0.24415083  0.20917023    -0.65100
Ni224      Ni  0.80427949  0.22121238  0.07303750     1.27400
Ni225      Ni  0.82973183  0.27209812  0.09693813     1.26100
H226        H  0.80980432  0.28226028  0.15454313     0.40100
N227        N  0.57543462  0.23487817  0.16677096    -0.02400
C228        C  0.55565116  0.23962986  0.14567534     0.00100
C229        C  0.56177540  0.24393816  0.10842745    -0.22700
C230        C  0.58584969  0.24170835  0.10602100    -0.22900
C231        C  0.59399386  0.23616357  0.14194781     0.00000
H232        H  0.54997784  0.24888493  0.08559279     0.13800
H233        H  0.59642316  0.24508837  0.08102595     0.13900
N234        N  0.57180727  0.19636874  0.44519506    -0.02400
C235        C  0.59096161  0.18828382  0.46461218     0.00100
C236        C  0.58424273  0.18172089  0.50083068    -0.22700
C237        C  0.56031823  0.18590972  0.50376380    -0.22900
C238        C  0.55307881  0.19523269  0.46939955     0.00000
H239        H  0.59582197  0.17595157  0.52351401     0.13800
H240        H  0.54954033  0.18280487  0.52858875     0.13900
N241        N  0.33016290  0.99560994  0.44151876    -0.02400
C242        C  0.33100622  0.97666073  0.41718591     0.00100
C243        C  0.33965641  0.98383516  0.38237806    -0.22700
C244        C  0.34436482  0.00773420  0.38493304    -0.22900
C245        C  0.33854846  0.01465679  0.42127213     0.00000
H246        H  0.34250116  0.97272594  0.35776125     0.13800
H247        H  0.35066087  0.01906252  0.36225563     0.13900
N248        N  0.30780004  0.99823722  0.21762344    -0.02400
C249        C  0.30903376  0.01966301  0.23498286     0.00100
C250        C  0.30927802  0.01732495  0.27391970    -0.22700
C251        C  0.30784105  0.99347476  0.28109659    -0.22900
C252        C  0.30656437  0.98225193  0.24628644     0.00000
H253        H  0.31146001  0.03129244  0.29476330     0.13800
H254        H  0.30823637  0.98529715  0.30871622     0.13900
N255        N  0.07063451  0.25613963  0.30213547    -0.02400
C256        C  0.05056565  0.25892605  0.28143990     0.00100
C257        C  0.05524093  0.25793108  0.24309367    -0.22700
C258        C  0.07921953  0.25458512  0.23981999    -0.22900
C259        C  0.08821328  0.25342482  0.27630391     0.00000
H260        H  0.04253410  0.25906493  0.22009921     0.13800
H261        H  0.08889692  0.25240015  0.21368605     0.13900
N262        N  0.07323969  0.24891609  0.07859063    -0.02400
C263        C  0.09163566  0.24227787  0.10152969     0.00100
C264        C  0.08297910  0.23329727  0.13530626    -0.22700
C265        C  0.05873387  0.23431088  0.13337918    -0.22900
C266        C  0.05312779  0.24357227  0.09827814     0.00000
H267        H  0.09329228  0.22660996  0.15887068     0.13800
H268        H  0.04643694  0.22903183  0.15537875     0.13900
O269        O  0.30852246  0.26931836  0.47117397    -0.79900
O270        O  0.30921925  0.25223871  0.29735489    -0.64500
O271        O  0.30315281  0.24256377  0.40321006    -1.11200
C272        C  0.38489691  0.23154718  0.40170357     1.07000
O273        O  0.33619228  0.22417803  0.28742556    -0.77800
O274        O  0.34004735  0.19631349  0.35063827    -0.65300
Ni275      Ni  0.28437956  0.26394838  0.43294280     1.34900
C276        C  0.33660437  0.19137998  0.38535432     0.85800
O277        O  0.27210554  0.24815362  0.34259788    -0.78300
O278        O  0.25793889  0.26015115  0.39893663    -0.88600
C279        C  0.32140790  0.23941591  0.27548800     0.85300
O280        O  0.29329670  0.29300366  0.40888772    -0.66800
O281        O  0.38065492  0.22116774  0.37029022    -0.86100
C282        C  0.30100899  0.29836214  0.37615984     0.86200
C283        C  0.25514974  0.25352121  0.36464864     1.07700
H284        H  0.34602691  0.26223837  0.35412798     0.39500
O285        O  0.33899419  0.24692548  0.35881439    -1.08700
O286        O  0.33663784  0.20751178  0.41097841    -0.65400
Ni287      Ni  0.33644110  0.24232448  0.41218427     1.26300
O288        O  0.30646180  0.28256745  0.35186513    -0.65600
O289        O  0.36963173  0.24324173  0.41990556    -0.77900
C290        C  0.32257958  0.25417176  0.48546162     0.85600
O291        O  0.33286544  0.23889456  0.46521057    -0.65100
Ni292      Ni  0.35669861  0.22352091  0.33126140     1.27400
Ni293      Ni  0.30557045  0.24800058  0.35004178     1.26100
H294        H  0.29685309  0.22702094  0.40689876     0.40100
O295        O  0.34837291  0.24144740  0.04108755    -0.79900
O296        O  0.33376628  0.23372295  0.21261335    -0.64500
O297        O  0.32289844  0.23048802  0.10661759    -1.11200
C298        C  0.30822893  0.31262469  0.11891444     1.07000
O299        O  0.30163515  0.25525384  0.22268986    -0.77800
O300        O  0.27423510  0.26681534  0.16363691    -0.65300
Ni301      Ni  0.34481129  0.21474936  0.07420987     1.34900
C302        C  0.26913530  0.26061826  0.13002182     0.85800
O303        O  0.33279618  0.19783633  0.16341508    -0.78300
O304        O  0.34230573  0.18673876  0.10407287    -0.88600
C305        C  0.31876960  0.24283111  0.23476575     0.85300
O306        O  0.37363910  0.22339910  0.09931233    -0.66800
O307        O  0.30143922  0.30733894  0.15238310    -0.86100
C308        C  0.37891737  0.23112091  0.13214965     0.86200
C309        C  0.33770915  0.18213885  0.13862862     1.07700
H310        H  0.33990756  0.27290982  0.15763259     0.39500
O311        O  0.32489204  0.26487982  0.15366892    -1.08700
O312        O  0.28459680  0.25996077  0.10360364    -0.65400
Ni313      Ni  0.31897465  0.26383164  0.10033580     1.26300
O314        O  0.36319687  0.23564333  0.15682772    -0.65600
O315        O  0.31599833  0.29737199  0.09554346    -0.77900
C316        C  0.33075805  0.25180391  0.02628322     0.85600
O317        O  0.31493803  0.26110351  0.04686850    -0.65100
Ni318      Ni  0.30228092  0.28021899  0.18547843     1.27400
Ni319      Ni  0.32912286  0.23144155  0.15956686     1.26100
H320        H  0.30775668  0.22268446  0.10302591     0.40100
C321        C  0.15480964  0.26537070  0.08577611    -0.13300
C322        C  0.16828596  0.24561251  0.09711680     0.17100
C323        C  0.15603898  0.22409715  0.10483249     0.03300
C324        C  0.13119191  0.22314449  0.10281940    -0.11800
C325        C  0.11769178  0.24320139  0.09349437    -0.02900
C326        C  0.12984255  0.26435657  0.08387088     0.02600
C327        C  0.19451423  0.24844266  0.10431144     0.09400
N328        N  0.16838183  0.20308070  0.11579833     0.65800
H329        H  0.12225987  0.20668649  0.11028189     0.18700
N330        N  0.11722679  0.28563323  0.07570921     0.76300
H331        H  0.16355135  0.28225325  0.08075471     0.10200
C332        C  0.21003957  0.25904799  0.07768583     0.03900
C333        C  0.23428615  0.26201112  0.08606139    -0.04800
C334        C  0.24375828  0.25503348  0.12112094    -0.23200
C335        C  0.22825777  0.24454456  0.14796084     0.13200
C336        C  0.20403136  0.24162107  0.13951542    -0.12300
N337        N  0.20171830  0.26616838  0.04129430     0.64800
H338        H  0.24569372  0.27030769  0.06514625     0.12700
N339        N  0.23683934  0.23609379  0.18362258     0.61500
H340        H  0.19251584  0.23437250  0.16115873     0.08800
O341        O  0.11646853  0.29302484  0.04195694    -0.40000
O342        O  0.11280237  0.29985019  0.10240763    -0.39200
O343        O  0.16799652  0.19674855  0.15012568    -0.39200
O344        O  0.17326716  0.18787295  0.09076747    -0.36900
O345        O  0.24180555  0.21437382  0.18705025    -0.37800
O346        O  0.23355083  0.24839294  0.21304808    -0.33900
O347        O  0.19952491  0.28799404  0.03401890    -0.35300
O348        O  0.20288072  0.25153891  0.01436841    -0.39600
C349        C  0.15495548  0.25826862  0.27927628    -0.13300
C350        C  0.16042882  0.24179871  0.30760416     0.17100
C351        C  0.14239541  0.22721045  0.32269991     0.03300
C352        C  0.11891855  0.23059787  0.31116561    -0.11800
C353        C  0.11323226  0.24844791  0.28501518    -0.02900
C354        C  0.13159038  0.26163643  0.26771354     0.02600
C355        C  0.18423791  0.24321408  0.32448059     0.09400
N356        N  0.14739991  0.20965346  0.35076401     0.65800
H357        H  0.10506153  0.21960549  0.32335016     0.18700
N358        N  0.12670322  0.27972854  0.24043798     0.76300
H359        H  0.16881090  0.26948497  0.26751742     0.10200
C360        C  0.20188257  0.22648825  0.31628430     0.03900
C361        C  0.22500357  0.23035592  0.32936629    -0.04800
C362        C  0.23084300  0.25082806  0.35022723    -0.23200
C363        C  0.21319581  0.26773182  0.35798943     0.13200
C364        C  0.19003835  0.26366200  0.34538887    -0.12300
N365        N  0.19690391  0.20610007  0.29341137     0.64800
H366        H  0.23848548  0.21730206  0.32312786     0.12700
N367        N  0.21886871  0.28990529  0.37576885     0.61500
H368        H  0.17665026  0.27698950  0.35065655     0.08800
O369        O  0.12395349  0.30085871  0.25146569    -0.40000
O370        O  0.13058734  0.27570539  0.20580506    -0.39200
O371        O  0.14313748  0.21420240  0.38509658    -0.39200
O372        O  0.14942177  0.18827125  0.34058246    -0.36900
O373        O  0.22400367  0.30759578  0.35532341    -0.37800
O374        O  0.21331659  0.29318283  0.40999478    -0.33900
O375        O  0.19949664  0.20751861  0.25795883    -0.35300
O376        O  0.19615312  0.18588099  0.30879716    -0.39600
C377        C  0.06328179  0.27631395  0.98224851    -0.13300
C378        C  0.07471375  0.25987639  0.95872275     0.17100
C379        C  0.08639964  0.24045094  0.97560113     0.03300
C380        C  0.08584413  0.23746949  0.01497474    -0.11800
C381        C  0.07439159  0.25377668  0.03848272    -0.02900
C382        C  0.06321073  0.27362197  0.02184221     0.02600
C383        C  0.07294619  0.24543253  0.42238197     0.09400
N384        N  0.10043735  0.22450975  0.95386257     0.65800
H385        H  0.09451563  0.22221729  0.02741242     0.18700
N386        N  0.05295522  0.29189763  0.04453793     0.76300
H387        H  0.05486293  0.29171200  0.96977712     0.10200
C388        C  0.05796266  0.23152276  0.39910303     0.03900
C389        C  0.05784985  0.23505131  0.35975030    -0.04800
C390        C  0.07192173  0.25278182  0.34283143    -0.23200
C391        C  0.08690468  0.26679564  0.36618511     0.13200
C392        C  0.08738330  0.26288516  0.40553966    -0.12300
N393        N  0.04164929  0.21481947  0.41512453     0.64800
H394        H  0.04636781  0.22409235  0.34222589     0.12700
N395        N  0.10090127  0.28573150  0.35080385     0.61500
H396        H  0.09860067  0.27403007  0.42325882     0.08800
O397        O  0.03129675  0.29673411  0.04020725    -0.40000
O398        O  0.06641258  0.30712854  0.05991750    -0.39200
O399        O  0.12269139  0.22650639  0.95618021    -0.39200
O400        O  0.08521907  0.18665090  0.46110825    -0.36900
O401        O  0.09186663  0.30606511  0.34750850    -0.37800
O402        O  0.12318748  0.28391717  0.35071834    -0.33900
O403        O  0.02103355  0.22159985  0.42347994    -0.35300
O404        O  0.05339863  0.21109885  0.89581862    -0.39600
C405        C  0.30458276  0.08342560  0.20427978    -0.13300
C406        C  0.32471973  0.08538907  0.18134597     0.17100
C407        C  0.33921388  0.06559299  0.17515154     0.03300
C408        C  0.33316641  0.04394345  0.19170957    -0.11800
C409        C  0.31339803  0.04213837  0.21550239    -0.02900
C410        C  0.29910671  0.06207358  0.22213439     0.02600
C411        C  0.33154154  0.10907241  0.16847130     0.09400
N412        N  0.36123838  0.06776768  0.15553416     0.65800
H413        H  0.34472063  0.02884715  0.18778251     0.18700
N414        N  0.27955873  0.06115203  0.24781799     0.76300
H415        H  0.29372371  0.09887644  0.20970701     0.10200
C416        C  0.32810935  0.11629126  0.13076583     0.03900
C417        C  0.33095380  0.14017447  0.12155122    -0.04800
C418        C  0.33710491  0.15700128  0.14946808    -0.23200
C419        C  0.34174745  0.14939844  0.18682683     0.13200
C420        C  0.33889916  0.12550154  0.19596693    -0.12300
N421        N  0.32061248  0.09994216  0.10200758     0.64800
H422        H  0.32742237  0.14566403  0.09263079     0.12700
N423        N  0.34960004  0.16552860  0.21563420     0.61500
H424        H  0.34169566  0.11981188  0.22500703     0.08800
O425        O  0.28246005  0.06834279  0.28144089    -0.40000
O426        O  0.25878791  0.05890949  0.23483130    -0.39200
O427        O  0.37949654  0.07416169  0.17375167    -0.39200
O428        O  0.36365969  0.05767258  0.12388016    -0.36900
O429        O  0.33450037  0.17560211  0.23637630    -0.37800
O430        O  0.37106486  0.16535624  0.22586320    -0.33900
O431        O  0.29907058  0.09942244  0.09220509    -0.35300
O432        O  0.33591499  0.09141364  0.07992323    -0.39600
C433        C  0.35652547  0.07973484  0.43225633    -0.13300
C434        C  0.33441274  0.09093839  0.42932119     0.17100
C435        C  0.31373673  0.07649729  0.42988868     0.03300
C436        C  0.31551592  0.05158430  0.43199256    -0.11800
C437        C  0.33762343  0.04036750  0.43196542    -0.02900
C438        C  0.35831664  0.05477785  0.43279060     0.02600
C439        C  0.33348947  0.11698543  0.41996906     0.09400
N440        N  0.29077178  0.08670632  0.42572034     0.65800
H441        H  0.29948592  0.04087628  0.43036622     0.18700
N442        N  0.38135534  0.04439599  0.43162045     0.76300
H443        H  0.37262420  0.09033831  0.43113101     0.10200
C444        C  0.34302892  0.13478545  0.44403245     0.03900
C445        C  0.34281079  0.15880693  0.43279402    -0.04800
C446        C  0.33410732  0.16580022  0.39705123    -0.23200
C447        C  0.32515640  0.14782983  0.37259600     0.13200
C448        C  0.32467099  0.12393694  0.38439020    -0.12300
N449        N  0.35352155  0.12883396  0.47966924     0.64800
H450        H  0.35042492  0.17200101  0.45174200     0.12700
N451        N  0.31678399  0.15329342  0.33537694     0.61500
H452        H  0.31806608  0.11053612  0.36488196     0.08800
O453        O  0.39387091  0.04422272  0.46134954    -0.40000
O454        O  0.39123031  0.04134582  0.39994547    -0.39200
O455        O  0.28056007  0.08572635  0.39384849    -0.39200
O456        O  0.27863648  0.09085862  0.45493944    -0.36900
O457        O  0.32983807  0.14875548  0.30733468    -0.37800
O458        O  0.29485291  0.15619308  0.33010447    -0.33900
O459        O  0.37583727  0.12843515  0.48247866    -0.35300
O460        O  0.34124210  0.13042726  0.50939183    -0.39600
C461        C  0.32611468  0.98053755  0.11838178    -0.13300
C462        C  0.30953161  0.99287109  0.09647127     0.17100
C463        C  0.29144628  0.00553105  0.11484495     0.03300
C464        C  0.29065925  0.00627210  0.15460958    -0.11800
C465        C  0.30759030  0.99437333  0.17687954    -0.02900
C466        C  0.32538276  0.98118073  0.15818880     0.02600
C467        C  0.31596619  0.99818274  0.56084907     0.09400
N468        N  0.27421104  0.01830981  0.09335315     0.65800
H469        H  0.27703136  0.01661851  0.16836776     0.18700
N470        N  0.34373434  0.96947503  0.17871439     0.76300
H471        H  0.34002584  0.97065624  0.10444187     0.10200
C472        C  0.33637234  0.00895052  0.54552986     0.03900
C473        C  0.34067555  0.00763727  0.50648761    -0.04800
C474        C  0.32504842  0.99558380  0.48183611    -0.23200
C475        C  0.30486641  0.98415571  0.49766462     0.13200
C476        C  0.30055749  0.98569228  0.53676201    -0.12300
N477        N  0.35264205  0.02176054  0.56910520     0.64800
H478        H  0.35651005  0.01601954  0.49531510     0.12700
N479        N  0.28796712  0.97163292  0.47490596     0.61500
H480        H  0.28487984  0.97719434  0.54841481     0.08800
O481        O  0.36268936  0.98075294  0.18557949    -0.40000
O482        O  0.34425846  0.94706874  0.17809891    -0.39200
O483        O  0.25443860  0.00873432  0.08586265    -0.39200
O484        O  0.28701505  0.04673020  0.57664463    -0.36900
O485        O  0.27105091  0.98311632  0.46053191    -0.37800
O486        O  0.28536327  0.94957753  0.48017092    -0.33900
O487        O  0.37021950  0.01109620  0.58309561    -0.35300
O488        O  0.34575215  0.03999952  0.05574586    -0.39600
C489        C  0.44972686  0.24191251  0.42090157    -0.13300
C490        C  0.45559295  0.22062225  0.43930114     0.17100
C491        C  0.43748067  0.20437932  0.44914604     0.03300
C492        C  0.41415307  0.20868532  0.43788111    -0.11800
C493        C  0.40858768  0.22927629  0.41779768    -0.02900
C494        C  0.42619017  0.24644205  0.41051218     0.02600
C495        C  0.48072265  0.21497809  0.44631164     0.09400
N496        N  0.44252359  0.18330393  0.47009804     0.65800
H497        H  0.40043519  0.19565288  0.44402200     0.18700
N498        N  0.42035974  0.26809329  0.39158962     0.76300
H499        H  0.46349360  0.25469141  0.41388909     0.10200
C500        C  0.49355555  0.20121053  0.42030620     0.03900
C501        C  0.51702304  0.19509864  0.42822096    -0.04800
C502        C  0.52842882  0.20308034  0.46128635    -0.23200
C503        C  0.51551258  0.21725321  0.48720817     0.13200
C504        C  0.49185186  0.22305874  0.47941823    -0.12300
N505        N  0.48296605  0.19328123  0.38564402     0.64800
H506        H  0.52594699  0.18336840  0.40884873     0.12700
N507        N  0.52612357  0.22622057  0.52126323     0.61500
H508        H  0.48209987  0.23387292  0.49932525     0.08800
O509        O  0.41074894  0.28464086  0.41003458    -0.40000
O510        O  0.42007567  0.26869924  0.35582604    -0.39200
O511        O  0.43756277  0.18262803  0.50494985    -0.39200
O512        O  0.44562614  0.16407625  0.45246051    -0.36900
O513        O  0.52129059  0.21631907  0.55242738    -0.37800
O514        O  0.53440076  0.24710638  0.52150507    -0.33900
O515        O  0.48665257  0.20492486  0.35564822    -0.35300
O516        O  0.47498027  0.17233289  0.38334451    -0.39600
C517        C  0.49300899  0.22230626  0.17530146    -0.13300
C518        C  0.48032623  0.24170624  0.16092671     0.17100
C519        C  0.49293673  0.26192899  0.14853229     0.03300
C520        C  0.51775907  0.26161291  0.14748626    -0.11800
C521        C  0.53052816  0.24137467  0.15848591    -0.02900
C522        C  0.51795869  0.22196174  0.17420348     0.02600
C523        C  0.45435850  0.23936560  0.15431792     0.09400
N524        N  0.48077088  0.28249596  0.13515880     0.65800
H525        H  0.52710236  0.27681461  0.13578356     0.18700
N526        N  0.52992813  0.20089201  0.18571033     0.76300
H527        H  0.48346612  0.20669758  0.18505780     0.10200
C528        C  0.44559512  0.23376109  0.11795751     0.03900
C529        C  0.42118565  0.23176422  0.11170122    -0.04800
C530        C  0.40471647  0.23461432  0.14125329    -0.23200
C531        C  0.41363034  0.23957139  0.17820769     0.13200
C532        C  0.43826365  0.24208314  0.18423699    -0.12300
N533        N  0.46132552  0.22894878  0.08723840     0.64800
H534        H  0.41521913  0.22746067  0.08326263     0.12700
N535        N  0.39820950  0.24131144  0.21016249     0.61500
H536        H  0.44487044  0.24592045  0.21249708     0.08800
O537        O  0.53248220  0.18426770  0.16209274    -0.40000
O538        O  0.53211023  0.19651368  0.22063246    -0.39200
O539        O  0.47768476  0.29974018  0.15743996    -0.39200
O540        O  0.47837025  0.28568493  0.09995193    -0.36900
O541        O  0.39532936  0.22345325  0.23132398    -0.37800
O542        O  0.39239155  0.26156615  0.22216337    -0.33900
O543        O  0.46826305  0.20793121  0.08209543    -0.35300
O544        O  0.46295343  0.24366835  0.06040057    -0.39600
C545        C  0.58778645  0.20809121  0.26300108    -0.13300
C546        C  0.57321914  0.22183766  0.28661357     0.17100
C547        C  0.56093088  0.24112272  0.27026243     0.03300
C548        C  0.56309691  0.24589514  0.23137089    -0.11800
C549        C  0.57630106  0.23112232  0.20740609    -0.02900
C550        C  0.58888686  0.21205042  0.22373720     0.02600
C551        C  0.57120181  0.21555995  0.32784209     0.09400
N552        N  0.54467660  0.25492209  0.29189102     0.65800
H553        H  0.55353668  0.26076603  0.21949813     0.18700
N554        N  0.60127542  0.19533533  0.20077417     0.76300
H555        H  0.59787088  0.19358881  0.27491960     0.10200
C556        C  0.56695195  0.19183714  0.33957806     0.03900
C557        C  0.56764552  0.18595989  0.37812681    -0.04800
C558        C  0.57139266  0.20331870  0.40588257    -0.23200
C559        C  0.57448015  0.22709317  0.39480737     0.13200
C560        C  0.57485235  0.23303454  0.35603221    -0.12300
N561        N  0.56096897  0.17358383  0.31293166     0.64800
H562        H  0.56476572  0.16768202  0.38669266     0.12700
N563        N  0.57709283  0.24528079  0.42276870     0.61500
H564        H  0.57836782  0.25127384  0.34800151     0.08800
O565        O  0.58988001  0.17820877  0.18625016    -0.40000
O566        O  0.62353474  0.19393095  0.20372300    -0.39200
O567        O  0.55036509  0.27584766  0.30125680    -0.39200
O568        O  0.52307476  0.24890247  0.29215500    -0.36900
O569        O  0.55888858  0.25397469  0.43799624    -0.37800
O570        O  0.59729050  0.24979811  0.43658713    -0.33900
O571        O  0.57566750  0.15727754  0.30650080    -0.35300
O572        O  0.53945536  0.17027672  0.30433560    -0.39600
C573        C  0.70431927  0.25366802  0.11450665    -0.13300
C574        C  0.69578101  0.24763199  0.15069005     0.17100
C575        C  0.71243494  0.24297981  0.17970926     0.03300
C576        C  0.73681053  0.24279054  0.17142352    -0.11800
C577        C  0.74517168  0.24680183  0.13443308    -0.02900
C578        C  0.72860962  0.25326283  0.10610554     0.02600
C579        C  0.66979311  0.24271955  0.15466292     0.09400
N580        N  0.70506321  0.23677801  0.21710303     0.65800
H581        H  0.74914722  0.23798707  0.19372281     0.18700
N582        N  0.73602912  0.25952177  0.06866207     0.76300
H583        H  0.69185400  0.25773500  0.09200621     0.10200
C584        C  0.65447412  0.25564975  0.17866908     0.03900
C585        C  0.62973263  0.25182844  0.17671656    -0.04800
C586        C  0.61986249  0.23567328  0.15062452    -0.23200
C587        C  0.63531929  0.22222304  0.12776519     0.13200
C588        C  0.65984017  0.22560941  0.13035458    -0.12300
N589        N  0.66333435  0.27409993  0.20273338     0.64800
H590        H  0.61813496  0.26279790  0.19366820     0.12700
N591        N  0.62638662  0.20579179  0.10024908     0.61500
H592        H  0.67123740  0.21540948  0.11184418     0.08800
O593        O  0.73694254  0.28117542  0.05949076    -0.40000
O594        O  0.73566721  0.24394390  0.04290993    -0.39200
O595        O  0.70323319  0.21509032  0.22571197    -0.39200
O596        O  0.70778139  0.25185354  0.24328160    -0.36900
O597        O  0.62772321  0.21116266  0.06561257    -0.37800
O598        O  0.62359580  0.18429642  0.10942118    -0.33900
O599        O  0.66565738  0.29477528  0.18938065    -0.35300
O600        O  0.66201543  0.27147980  0.23819710    -0.39600
C601        C  0.94396373  0.24652589  0.12717483    -0.13300
C602        C  0.95252237  0.25615606  0.09314724     0.17100
C603        C  0.93638969  0.26687034  0.06795814     0.03300
C604        C  0.91248782  0.26923632  0.07837671    -0.11800
C605        C  0.90410901  0.26087223  0.11357387    -0.02900
C606        C  0.92001025  0.24847029  0.13733943     0.02600
C607        C  0.97857237  0.25607325  0.08658284     0.09400
N608        N  0.94404462  0.27608676  0.03227846     0.65800
H609        H  0.90061488  0.27850228  0.05931286     0.18700
N610        N  0.91206230  0.23688349  0.17104999     0.76300
H611        H  0.95609475  0.23757260  0.14622246     0.10200
C612        C  0.99333402  0.27146203  0.10772262     0.03900
C613        C  0.01782880  0.26796545  0.10856597    -0.04800
C614        C  0.02833049  0.24953784  0.08806252    -0.23200
C615        C  0.01380760  0.23478311  0.06513154     0.13200
C616        C  0.98903724  0.23820979  0.06447833    -0.12300
N617        N  0.98352416  0.28998700  0.13031273     0.64800
H618        H  0.02870129  0.27916311  0.12676559     0.12700
N619        N  0.02358043  0.21511392  0.04504526     0.61500
H620        H  0.97785647  0.22600636  0.04857619     0.08800
O621        O  0.91971487  0.24401483  0.20276245    -0.40000
O622        O  0.90322009  0.21627493  0.16848298    -0.39200
O623        O  0.93983359  0.26429141  0.00252671    -0.39200
O624        O  0.94921337  0.29786538  0.02955608    -0.36900
O625        O  0.02315247  0.19476790  0.06005095    -0.37800
O626        O  0.02727921  0.21693878  0.00989360    -0.33900
O627        O  0.98081974  0.28675143  0.16544116    -0.35300
O628        O  0.98290248  0.31082265  0.11720314    -0.39600
C629        C  0.68744425  0.23418911  0.40282167    -0.13300
C630        C  0.68678627  0.21534967  0.42868897     0.17100
C631        C  0.70802800  0.20638179  0.44379439     0.03300
C632        C  0.72964898  0.21636204  0.43258002    -0.11800
C633        C  0.73037060  0.23476480  0.40576189    -0.02900
C634        C  0.70906001  0.24382240  0.39099056     0.02600
C635        C  0.66348230  0.20620565  0.44030762     0.09400
N636        N  0.70799180  0.18654821  0.46906661     0.65800
H637        H  0.74600135  0.20888887  0.44339981     0.18700
N638        N  0.70905599  0.26302537  0.36456129     0.76300
H639        H  0.67105091  0.24134414  0.39163044     0.10200
C640        C  0.65137849  0.21693333  0.47038437     0.03900
C641        C  0.62782684  0.21065021  0.47746046    -0.04800
C642        C  0.61600956  0.19360633  0.45504141    -0.23200
C643        C  0.62851481  0.18227943  0.42548899     0.13200
C644        C  0.65208426  0.18889672  0.41818303    -0.12300
N645        N  0.66257373  0.23498507  0.49282947     0.64800
H646        H  0.61847647  0.21954553  0.50011337     0.12700
N647        N  0.61812032  0.16360325  0.40345148     0.61500
H648        H  0.66148975  0.18065917  0.39491842     0.08800
O649        O  0.70630566  0.25865159  0.32972624    -0.40000
O650        O  0.70588332  0.28389002  0.37653459    -0.39200
O651        O  0.71007467  0.16588034  0.45564255    -0.39200
O652        O  0.71174197  0.18994403  0.50395211    -0.36900
O653        O  0.61568182  0.16662781  0.36820175    -0.37800
O654        O  0.62368610  0.15479306  0.91588941    -0.33900
O655        O  0.66213073  0.25630947  0.48186256    -0.35300
O656        O  0.67602164  0.22920126  0.51990727    -0.39600
C657        C  0.99651429  0.28296754  0.33076265    -0.13300
C658        C  0.97987398  0.26500501  0.32312737     0.17100
C659        C  0.98686663  0.24463324  0.30274373     0.03300
C660        C  0.01009749  0.24297215  0.28952096    -0.11800
C661        C  0.02659652  0.26108216  0.29698801    -0.02900
C662        C  0.01981673  0.28107921  0.31813737     0.02600
C663        C  0.95491534  0.26901865  0.33336392     0.09400
N664        N  0.97071843  0.22541868  0.29566941     0.65800
H665        H  0.01534945  0.22741712  0.27355085     0.18700
N666        N  0.03593989  0.30022453  0.32531460     0.76300
H667        H  0.99117513  0.29901948  0.34528713     0.10200
C668        C  0.94819029  0.27477841  0.37070277     0.03900
C669        C  0.92436764  0.27873663  0.37891035    -0.04800
C670        C  0.90693181  0.27676258  0.35057452    -0.23200
C671        C  0.91389533  0.27228956  0.31276936     0.13200
C672        C  0.93776634  0.26866825  0.30454943    -0.12300
N673        N  0.96511164  0.27556361  0.40095791     0.64800
H674        H  0.91941415  0.28207442  0.40809472     0.12700
N675        N  0.89706917  0.27135606  0.28237530     0.61500
H676        H  0.94293530  0.26554152  0.27540969     0.08800
O677        O  0.04260381  0.30408044  0.35895984    -0.40000
O678        O  0.03779219  0.31664630  0.30114083    -0.39200
O679        O  0.96207459  0.22273370  0.26287305    -0.39200
O680        O  0.96980098  0.20835465  0.31881475    -0.36900
O681        O  0.89454721  0.28930216  0.26135681    -0.37800
O682        O  0.88941276  0.25142580  0.27114510    -0.33900
O683        O  0.97130109  0.29542241  0.41453891    -0.35300
O684        O  0.96907107  0.25693869  0.41975647    -0.39600
C685        C  0.78318430  0.09014333  0.22400709    -0.13300
C686        C  0.79752015  0.09469164  0.19251775     0.17100
C687        C  0.80885416  0.07583555  0.17402753     0.03300
C688        C  0.80505174  0.05262902  0.18641683    -0.11800
C689        C  0.78951416  0.04769854  0.21643204    -0.02900
C690        C  0.77924426  0.06684552  0.23639342     0.02600
C691        C  0.80067386  0.11929760  0.17969153     0.09400
N692        N  0.82423852  0.07993562  0.14258152     0.65800
H693        H  0.81448881  0.03845508  0.17244767     0.18700
N694        N  0.76470514  0.06309206  0.26898913     0.76300
H695        H  0.77491408  0.10475770  0.23887525     0.10200
C696        C  0.78495824  0.12931046  0.15330148     0.03900
C697        C  0.78826620  0.15273540  0.14164879    -0.04800
C698        C  0.80681563  0.16670171  0.15647373    -0.23200
C699        C  0.82223044  0.15678561  0.18389175     0.13200
C700        C  0.81912616  0.13308449  0.19495929    -0.12300
N701        N  0.76523687  0.11607919  0.13870084     0.64800
H702        H  0.77597939  0.16014873  0.12120297     0.12700
N703        N  0.84143565  0.17015368  0.19996871     0.61500
H704        H  0.83108659  0.12541819  0.21565938     0.08800
O705        O  0.74244875  0.06342637  0.26527181    -0.40000
O706        O  0.77364199  0.06615920  0.30151565    -0.39200
O707        O  0.84638222  0.07975575  0.14783889    -0.39200
O708        O  0.81617254  0.07757831  0.10936106    -0.36900
O709        O  0.83859153  0.18027482  0.23155873    -0.37800
O710        O  0.86221168  0.16669619  0.18807937    -0.33900
O711        O  0.74502110  0.11905386  0.15311576    -0.35300
O712        O  0.76682427  0.10638192  0.10655118    -0.39600
C713        C  0.83827292  0.09311866  0.39327165    -0.13300
C714        C  0.81707578  0.10284387  0.40640205     0.17100
C715        C  0.79908129  0.08746562  0.41962026     0.03300
C716        C  0.80222601  0.06263616  0.41829903    -0.11800
C717        C  0.82302346  0.05276651  0.40313607    -0.02900
C718        C  0.84129389  0.06843008  0.39103543     0.02600
C719        C  0.81257266  0.12851021  0.39961511     0.09400
N720        N  0.77695547  0.09689522  0.43201322     0.65800
H721        H  0.78777602  0.05105096  0.42684590     0.18700
N722        N  0.86274852  0.05965662  0.37492655     0.76300
H723        H  0.85206841  0.10478392  0.38249968     0.10200
C724        C  0.81994647  0.14638154  0.42508000     0.03900
C725        C  0.81658528  0.17042173  0.41593711    -0.04800
C726        C  0.80577640  0.17730565  0.38156671    -0.23200
C727        C  0.79811609  0.15907443  0.35629724     0.13200
C728        C  0.80169634  0.13512132  0.36551659    -0.12300
N729        N  0.83063332  0.14045169  0.46055607     0.64800
H730        H  0.82241637  0.18375021  0.43616604     0.12700
N731        N  0.78638252  0.16428870  0.32132140     0.61500
H732        H  0.79597638  0.12148045  0.34569457     0.08800
O733        O  0.86472064  0.05901402  0.33930823    -0.40000
O734        O  0.88131843  0.05956519  0.39498424    -0.39200
O735        O  0.76031893  0.09952166  0.40839577    -0.39200
O736        O  0.77566405  0.10680161  0.46404210    -0.36900
O737        O  0.76402205  0.16347456  0.31995689    -0.37800
O738        O  0.79798657  0.16350857  0.29081231    -0.33900
O739        O  0.85290342  0.14147378  0.46385796    -0.35300
O740        O  0.81800109  0.14001751  0.49002231    -0.39600
C741        C  0.76642474  0.01718650  0.09898657    -0.13300
C742        C  0.78416561  0.00446461  0.07997981     0.17100
C743        C  0.80152033  0.99259632  0.10169680     0.03300
C744        C  0.80065161  0.99340142  0.14125617    -0.11800
C745        C  0.78260332  0.00551559  0.16026662    -0.02900
C746        C  0.76542311  0.01771237  0.13876787     0.02600
C747        C  0.81152913  0.00628786  0.53776137     0.09400
N748        N  0.81982403  0.97906078  0.08419930     0.65800
H749        H  0.81415147  0.98430074  0.15745441     0.18700
N750        N  0.74660568  0.03026923  0.15666149     0.76300
H751        H  0.75334818  0.02695771  0.08286497     0.10200
C752        C  0.79233009  0.00016368  0.51356824     0.03900
C753        C  0.79505395  0.00147469  0.47413741    -0.04800
C754        C  0.81642811  0.00896441  0.45793957    -0.23200
C755        C  0.83508558  0.01643944  0.48192655     0.13200
C756        C  0.83245177  0.01514741  0.52135682    -0.12300
N757        N  0.77004323  0.99227956  0.52825219     0.64800
H758        H  0.78037028  0.99662555  0.45591322     0.12700
N759        N  0.85704593  0.02486513  0.46688785     0.61500
H760        H  0.84694689  0.02110801  0.53928701     0.08800
O761        O  0.72674062  0.02008242  0.16035298    -0.40000
O762        O  0.74767574  0.05264866  0.15834992    -0.39200
O763        O  0.84071190  0.98726975  0.08390371    -0.39200
O764        O  0.81658103  0.95708387  0.07912109    -0.36900
O765        O  0.87396489  0.01049514  0.46334367    -0.37800
O766        O  0.86154866  0.04684014  0.46823900    -0.33900
O767        O  0.75293784  0.00661710  0.52877179    -0.35300
O768        O  0.74112881  0.96723616  0.03562997    -0.39600
C769        C  0.84018941  0.42552828  0.34032144    -0.13300
C770        C  0.82043742  0.41151785  0.33049056     0.17100
C771        C  0.79944374  0.42301143  0.31879679     0.03300
C772        C  0.79816196  0.44795123  0.31944795    -0.11800
C773        C  0.81729206  0.46187378  0.33236006    -0.02900
C774        C  0.83873023  0.45041146  0.34198256     0.02600
C775        C  0.82115468  0.38549436  0.33868844     0.09400
N776        N  0.77887190  0.40964507  0.30797313     0.65800
H777        H  0.78152268  0.45641639  0.31234831     0.18700
N778        N  0.85858868  0.46340606  0.35664624     0.76300
H779        H  0.85631444  0.41703674  0.34992992     0.10200
C780        C  0.83753692  0.37024679  0.32102036     0.03900
C781        C  0.83938322  0.34652920  0.33267018    -0.04800
C782        C  0.82562668  0.33751101  0.36254493    -0.23200
C783        C  0.80908626  0.35261376  0.38011595     0.13200
C784        C  0.80698256  0.37632625  0.36806447    -0.12300
N785        N  0.85232492  0.37839135  0.29089629     0.64800
H786        H  0.85222543  0.33521496  0.31884642     0.12700
N787        N  0.79366691  0.34399188  0.40913501     0.61500
H788        H  0.79458390  0.38783251  0.38244397     0.08800
O789        O  0.87721789  0.46476034  0.33699913    -0.40000
O790        O  0.86009184  0.46660434  0.39197824    -0.39200
O791        O  0.76259494  0.40631605  0.33190097    -0.39200
O792        O  0.77435705  0.40676278  0.27319654    -0.36900
O793        O  0.79742439  0.35000944  0.44310317    -0.37800
O794        O  0.77356758  0.33578813  0.39995213    -0.33900
O795        O  0.87345068  0.38443785  0.29813594    -0.35300
O796        O  0.84686138  0.37272780  0.25740631    -0.39600
C797        C  0.88133336  0.42840556  0.08136025    -0.13300
C798        C  0.86548903  0.41475599  0.05945437     0.17100
C799        C  0.85387173  0.42530631  0.02842367     0.03300
C800        C  0.85839155  0.44910598  0.01964225    -0.11800
C801        C  0.87411774  0.46287316  0.04157192    -0.02900
C802        C  0.88581276  0.45232228  0.07264766     0.02600
C803        C  0.85974151  0.39028243  0.07166060     0.09400
N804        N  0.83644019  0.41256042  0.00688318     0.65800
H805        H  0.84901505  0.45710613  0.99604532     0.18700
N806        N  0.90277098  0.46525458  0.09485201     0.76300
H807        H  0.89020945  0.42042516  0.10545087     0.10200
C808        C  0.86798345  0.37012587  0.05205710     0.03900
C809        C  0.86216963  0.34733302  0.06523866    -0.04800
C810        C  0.84890249  0.34430440  0.09843699    -0.23200
C811        C  0.84094535  0.36449263  0.11820967     0.13200
C812        C  0.84625414  0.38722958  0.10456536    -0.12300
N813        N  0.88361191  0.37244386  0.02046998     0.64800
H814        H  0.86882575  0.33192492  0.05031104     0.12700
N815        N  0.82746676  0.36226046  0.15218139     0.61500
H816        H  0.83998738  0.40263598  0.11994497     0.08800
O817        O  0.92432169  0.46466481  0.08540531    -0.40000
O818        O  0.89755066  0.47103001  0.12836603    -0.39200
O819        O  0.81486948  0.41448941  0.01570237    -0.39200
O820        O  0.84170817  0.40507414  0.97427490    -0.36900
O821        O  0.80514686  0.36330182  0.15042746    -0.37800
O822        O  0.83767180  0.36585625  0.18351879    -0.33900
O823        O  0.90570214  0.37202940  0.02626009    -0.35300
O824        O  0.87580417  0.36839909  0.98751477    -0.39600
C825        C  0.81535142  0.51074369  0.21359743    -0.13300
C826        C  0.83875570  0.50371567  0.20659760     0.17100
C827        C  0.85368542  0.49847502  0.23767483     0.03300
C828        C  0.84496203  0.50027122  0.27468020    -0.11800
C829        C  0.82144493  0.50671622  0.28158168    -0.02900
C830        C  0.80657036  0.51210351  0.25064708     0.02600
C831        C  0.84746129  0.50358052  0.16688182     0.09400
N832        N  0.87738614  0.49037337  0.23220846     0.65800
H833        H  0.85653919  0.49647506  0.29831517     0.18700
N834        N  0.78232800  0.51824041  0.25618098     0.76300
H835        H  0.80380392  0.51527520  0.19011030     0.10200
C836        C  0.83625366  0.48980575  0.13845634     0.03900
C837        C  0.84364155  0.49169996  0.10073383    -0.04800
C838        C  0.86238556  0.50685000  0.09050127    -0.23200
C839        C  0.87374907  0.52052822  0.11895609     0.13200
C840        C  0.86607936  0.51891836  0.15666944    -0.12300
N841        N  0.81785351  0.47321608  0.14755870     0.64800
H842        H  0.83476128  0.48114036  0.07920515     0.12700
N843        N  0.89394495  0.53504133  0.11060205     0.61500
H844        H  0.87474297  0.52973009  0.17813593     0.08800
O845        O  0.76666118  0.50220918  0.25333768    -0.40000
O846        O  0.77632809  0.53968681  0.25284164    -0.39200
O847        O  0.89450551  0.50419262  0.23963908    -0.39200
O848        O  0.88109706  0.46833008  0.23008135    -0.36900
O849        O  0.91419453  0.52564706  0.11041982    -0.37800
O850        O  0.89244383  0.55726541  0.11453077    -0.33900
O851        O  0.79667537  0.47811325  0.13916564    -0.35300
O852        O  0.82326510  0.45193230  0.15443126    -0.39600
C853        C  0.85095999  0.63007431  0.09338294    -0.13300
C854        C  0.84282125  0.62230859  0.05803185     0.17100
C855        C  0.82682573  0.63653865  0.03746816     0.03300
C856        C  0.81943335  0.65832723  0.05256185    -0.11800
C857        C  0.82749837  0.66620027  0.08827773    -0.02900
C858        C  0.84350932  0.65158939  0.10875714     0.02600
C859        C  0.84960803  0.59818884  0.04574590     0.09400
N860        N  0.81805908  0.62925524  0.00118659     0.65800
H861        H  0.80726046  0.66906052  0.03617642     0.18700
N862        N  0.85198156  0.65775795  0.14574776     0.76300
H863        H  0.86271294  0.61891444  0.10987327     0.10200
C864        C  0.87350406  0.59233247  0.03895480     0.03900
C865        C  0.87978280  0.56865676  0.03302923    -0.04800
C866        C  0.86287762  0.55039942  0.03559719    -0.23200
C867        C  0.83891726  0.55619538  0.04207129     0.13200
C868        C  0.83248944  0.58001811  0.04683815    -0.12300
N869        N  0.89173368  0.61009542  0.03917508     0.64800
H870        H  0.89816724  0.56439958  0.02745218     0.12700
N871        N  0.82083193  0.53831406  0.04322513     0.61500
H872        H  0.81415223  0.58428062  0.05274376     0.08800
O873        O  0.84163074  0.64924527  0.17441664    -0.40000
O874        O  0.87263819  0.66625590  0.14939137    -0.39200
O875        O  0.79748732  0.62040176  0.99868389    -0.39200
O876        O  0.82800268  0.63707736  0.97167192    -0.36900
O877        O  0.80930304  0.53369674  0.01335381    -0.37800
O878        O  0.81202785  0.53266563  0.07483659    -0.33900
O879        O  0.90432602  0.61272516  0.06855614    -0.35300
O880        O  0.89914473  0.61824355  0.00803812    -0.39600
C881        C  0.77288749  0.87223803  0.19018643    -0.13300
C882        C  0.77338016  0.88959642  0.16170788     0.17100
C883        C  0.77395273  0.88254979  0.12341224     0.03300
C884        C  0.77432168  0.85837816  0.11437275    -0.11800
C885        C  0.77486121  0.84091417  0.14286371    -0.02900
C886        C  0.77391948  0.84807082  0.18126955     0.02600
C887        C  0.77609486  0.91462797  0.17346061     0.09400
N888        N  0.77602440  0.89952350  0.09347337     0.65800
H889        H  0.77531076  0.85332621  0.08475380     0.18700
N890        N  0.77428013  0.83123356  0.21161942     0.76300
H891        H  0.77262073  0.87757180  0.21973861     0.10200
C892        C  0.75787619  0.93140614  0.16886088     0.03900
C893        C  0.76053344  0.95410167  0.18457734    -0.04800
C894        C  0.78091118  0.96020912  0.20533207    -0.23200
C895        C  0.79940837  0.94368569  0.20896727     0.13200
C896        C  0.79686049  0.92111055  0.19298424    -0.12300
N897        N  0.73607585  0.92535022  0.15039968     0.64800
H898        H  0.74634112  0.96684770  0.18142805     0.12700
N899        N  0.82114768  0.94975923  0.22766146     0.61500
H900        H  0.81104049  0.90836758  0.19635525     0.08800
O901        O  0.75617938  0.82885021  0.23224937    -0.40000
O902        O  0.79396595  0.82370660  0.22354487    -0.39200
O903        O  0.79644666  0.90524709  0.08197313    -0.39200
O904        O  0.75846119  0.90290444  0.07193499    -0.36900
O905        O  0.83883084  0.95583193  0.20797876    -0.37800
O906        O  0.82435702  0.94321000  0.26148972    -0.33900
O907        O  0.71899739  0.91779732  0.17014767    -0.35300
O908        O  0.73186841  0.93377977  0.11794661    -0.39600
C909        C  0.82660900  0.63478714  0.36753982    -0.13300
C910        C  0.81193475  0.62737171  0.33751692     0.17100
C911        C  0.79807903  0.64476676  0.31901426     0.03300
C912        C  0.79919619  0.66875057  0.33065302    -0.11800
C913        C  0.81374469  0.67625421  0.36106525    -0.02900
C914        C  0.82770804  0.65866977  0.37936764     0.02600
C915        C  0.80933183  0.60117350  0.32965289     0.09400
N916        N  0.78295747  0.63852239  0.28792661     0.65800
H917        H  0.78846276  0.68158353  0.31562771     0.18700
N918        N  0.84321213  0.66448535  0.41017065     0.76300
H919        H  0.83686926  0.62173699  0.38293565     0.10200
C920        C  0.82898922  0.58637739  0.32182160     0.03900
C921        C  0.82635996  0.56144627  0.32183461    -0.04800
C922        C  0.80453861  0.55061224  0.33032297    -0.23200
C923        C  0.78466257  0.56536849  0.33629259     0.13200
C924        C  0.78718229  0.59024726  0.33555290    -0.12300
N925        N  0.85199398  0.59626136  0.31509940     0.64800
H926        H  0.84188651  0.55051549  0.31772950     0.12700
N927        N  0.76186694  0.55542071  0.34460607     0.61500
H928        H  0.77192525  0.60106824  0.34211350     0.08800
O929        O  0.86515821  0.66658529  0.40397749    -0.40000
O930        O  0.83616546  0.66114113  0.44368601    -0.39200
O931        O  0.76087406  0.63703129  0.29322060    -0.39200
O932        O  0.79065819  0.64077086  0.25455559    -0.36900
O933        O  0.74691312  0.55306705  0.31814783    -0.37800
O934        O  0.75473535  0.55517315  0.37848240    -0.33900
O935        O  0.86722686  0.59587767  0.34139030    -0.35300
O936        O  0.85887820  0.59886754  0.28134164    -0.39600
C937        C  0.81258830  0.87764575  0.36767826    -0.13300
C938        C  0.80807252  0.88624942  0.40427196     0.17100
C939        C  0.79886579  0.87023170  0.43139204     0.03300
C940        C  0.79375149  0.84645967  0.42128070    -0.11800
C941        C  0.79727173  0.83797459  0.38408788    -0.02900
C942        C  0.80733529  0.85399015  0.35734993     0.02600
C943        C  0.81037871  0.91249242  0.41139386     0.09400
N944        N  0.79435463  0.87781419  0.46931296     0.65800
H945        H  0.78620743  0.83479215  0.44255607     0.18700
N946        N  0.81220811  0.84680112  0.31933376     0.76300
H947        H  0.81958201  0.88967679  0.34641017     0.10200
C948        C  0.83263700  0.92399195  0.41526929     0.03900
C949        C  0.83432071  0.94900405  0.41369075    -0.04800
C950        C  0.81421316  0.96309195  0.40745157    -0.23200
C951        C  0.79185063  0.95160212  0.40486574     0.13200
C952        C  0.79012181  0.92666516  0.40761202    -0.12300
N953        N  0.85387922  0.91051138  0.41875444     0.64800
H954        H  0.85168219  0.95737544  0.41483392     0.12700
N955        N  0.77092152  0.96467647  0.39605388     0.61500
H956        H  0.77295786  0.91818959  0.40375890     0.08800
O957        O  0.79851969  0.85342184  0.29307404    -0.40000
O958        O  0.83281271  0.83992903  0.31109868    -0.39200
O959        O  0.77339519  0.88260373  0.47894225    -0.39200
O960        O  0.80964398  0.87381919  0.49468561    -0.36900
O961        O  0.75476387  0.96618502  0.42059512    -0.37800
O962        O  0.76591308  0.96864709  0.36174779    -0.33900
O963        O  0.86656874  0.90722191  0.38984253    -0.35300
O964        O  0.86263520  0.90709165  0.45125047    -0.39600
C965        C  0.63192304  0.78051355  0.46556876    -0.13300
C966        C  0.64023599  0.79857442  0.44157604     0.17100
C967        C  0.62445378  0.81620816  0.42874653     0.03300
C968        C  0.60100409  0.81605201  0.44139629    -0.11800
C969        C  0.59292600  0.79816439  0.46572527    -0.02900
C970        C  0.60831337  0.77995317  0.47717370     0.02600
C971        C  0.66459624  0.79675422  0.42696140     0.09400
N972        N  0.63179478  0.83404583  0.40238387     0.65800
H973        H  0.58898918  0.82979295  0.43192759     0.18700
N974        N  0.59959973  0.75961901  0.49718893     0.76300
H975        H  0.64354065  0.76613030  0.47377893     0.10200
C976        C  0.68425904  0.79574945  0.45171286     0.03900
C977        C  0.70658805  0.79026264  0.43747043    -0.04800
C978        C  0.70981298  0.78595044  0.39875429    -0.23200
C979        C  0.69019532  0.78719501  0.37382741     0.13200
C980        C  0.66779693  0.79248923  0.38818235    -0.12300
N981        N  0.68188977  0.80021177  0.49139365     0.64800
H982        H  0.72156381  0.78962328  0.45680544     0.12700
N983        N  0.69231256  0.78143409  0.33449441     0.61500
H984        H  0.65264619  0.79214923  0.36919508     0.08800
O985        O  0.60331560  0.75771916  0.53233071    -0.40000
O986        O  0.59234399  0.74175852  0.47873431    -0.39200
O987        O  0.62616274  0.83181059  0.36788778    -0.39200
O988        O  0.63825327  0.85415359  0.41460992    -0.36900
O989        O  0.68846365  0.76034121  0.32383258    -0.37800
O990        O  0.69201839  0.79791722  0.31026824    -0.33900
O991        O  0.68535278  0.78346822  0.51447865    -0.35300
O992        O  0.68293134  0.82136240  0.50319054    -0.39600
C993        C  0.62878422  0.77901562  0.13162810    -0.13300
C994        C  0.63845677  0.76199109  0.15592964     0.17100
C995        C  0.62321052  0.74952433  0.18077650     0.03300
C996        C  0.59859267  0.75377043  0.17987841    -0.11800
C997        C  0.58879924  0.77011935  0.15420521    -0.02900
C998        C  0.60434581  0.78306072  0.13030157     0.02600
C999        C  0.66452954  0.75808256  0.15391750     0.09400
N1000       N  0.63217274  0.73160436  0.20548672     0.65800
H1001       H  0.58699316  0.74316054  0.19762949     0.18700
N1002       N  0.59562097  0.80019560  0.10391192     0.76300
H1003       H  0.64033438  0.78894618  0.11278841     0.10200
C1004       C  0.67443069  0.74490689  0.12390219     0.03900
C1005       C  0.69885418  0.74637947  0.11638982    -0.04800
C1006       C  0.71394182  0.76081515  0.13840481    -0.23200
C1007       C  0.70415632  0.77324366  0.16953030     0.13200
C1008       C  0.67968305  0.77170134  0.17702864    -0.12300
N1009       N  0.65968111  0.73081614  0.09960773     0.64800
H1010       H  0.70594409  0.73678683  0.09235303     0.12700
N1011       N  0.71818520  0.78966908  0.19103496     0.61500
H1012       H  0.67223519  0.78250732  0.19942317     0.08800
O1013       O  0.59557811  0.79525775  0.06898787    -0.40000
O1014       O  0.59453319  0.82167523  0.11397307    -0.39200
O1015       O  0.63345040  0.73573247  0.24061102    -0.39200
O1016       O  0.63295195  0.71040157  0.19392493    -0.36900
O1017       O  0.71810265  0.81134948  0.18192293    -0.37800
O1018       O  0.72537880  0.78379718  0.22359930    -0.33900
O1019       O  0.65043382  0.74012855  0.07063839    -0.35300
O1020       O  0.65988671  0.70848978  0.10272945    -0.39600
C1021       C  0.55966806  0.79605409  0.26958164    -0.13300
C1022       C  0.54963247  0.77898647  0.29391966     0.17100
C1023       C  0.53832572  0.75891755  0.27764316     0.03300
C1024       C  0.53724083  0.75630400  0.23806063    -0.11800
C1025       C  0.54696466  0.77345048  0.21373073    -0.02900
C1026       C  0.55841753  0.79351127  0.22988993     0.02600
C1027       C  0.54981360  0.78326884  0.33584302     0.09400
N1028       N  0.52653909  0.74168732  0.30068207     0.65800
H1029       H  0.52839734  0.74085664  0.22612524     0.18700
N1030       N  0.56764117  0.81213773  0.20657927     0.76300
H1031       H  0.56811527  0.81174006  0.28150165     0.10200
C1032       C  0.56224579  0.76847674  0.36129228     0.03900
C1033       C  0.56148462  0.77295969  0.40037233    -0.04800
C1034       C  0.54919422  0.79242315  0.41509927    -0.23200
C1035       C  0.53752546  0.80796199  0.38978572     0.13200
C1036       C  0.53765179  0.80296603  0.35055230    -0.12300
N1037       N  0.57705107  0.74977805  0.34798912     0.64800
H1038       H  0.57093286  0.76131710  0.41944554     0.12700
N1039       N  0.52631862  0.82922710  0.40319975     0.61500
H1040       H  0.52860259  0.81480387  0.33118767     0.08800
O1041       O  0.58980450  0.81508691  0.20443126    -0.40000
O1042       O  0.55416930  0.82891375  0.19699213    -0.39200
O1043       O  0.50513292  0.74501039  0.30938862    -0.39200
O1044       O  0.53478298  0.72094034  0.30248989    -0.36900
O1045       O  0.53531590  0.84100937  0.43020443    -0.37800
O1046       O  0.50834632  0.83730829  0.38625314    -0.33900
O1047       O  0.59840443  0.75454219  0.34030601    -0.35300
O1048       O  0.57136643  0.72855909  0.35533659    -0.39600
C1049       C  0.40797467  0.76333612  0.20305641    -0.13300
C1050       C  0.42312481  0.76639841  0.17173990     0.17100
C1051       C  0.41292250  0.76798609  0.13534466     0.03300
C1052       C  0.38833923  0.76728849  0.13061909    -0.11800
C1053       C  0.37293938  0.76473371  0.16159264    -0.02900
C1054       C  0.38305056  0.76230092  0.19824563     0.02600
C1055       C  0.44950346  0.76505967  0.17574468     0.09400
N1056       N  0.42739944  0.77010266  0.10244909     0.65800
H1057       H  0.38130891  0.76879970  0.10208563     0.18700
N1058       N  0.36835162  0.75880258  0.23073235     0.76300
H1059       H  0.41551651  0.76133410  0.23115884     0.10200
C1060       C  0.46384193  0.78477688  0.18611349     0.03900
C1061       C  0.48874999  0.78359768  0.18261664    -0.04800
C1062       C  0.49968556  0.76329218  0.16775555    -0.23200
C1063       C  0.48528687  0.74328773  0.15901565     0.13200
C1064       C  0.46063271  0.74425511  0.16362268    -0.12300
N1065       N  0.45339530  0.80678726  0.19690336     0.64800
H1066       H  0.49936971  0.79930939  0.18849907     0.12700
N1067       N  0.49523331  0.72216976  0.14336592     0.61500
H1068       H  0.44991326  0.72902566  0.15537030     0.08800
O1069       O  0.35926243  0.77646264  0.24709845    -0.40000
O1070       O  0.36167918  0.73808239  0.23954179    -0.39200
O1071       O  0.43143337  0.75178303  0.08292352    -0.39200
O1072       O  0.43051671  0.79035639  0.08792148    -0.36900
O1073       O  0.49335582  0.71842980  0.10818061    -0.37800
O1074       O  0.49947513  0.70491242  0.16509966    -0.33900
O1075       O  0.45385144  0.81293307  0.23131375    -0.35300
O1076       O  0.44959339  0.82228985  0.17181634    -0.39600
C1077       C  0.30962391  0.88063140  0.17626523    -0.13300
C1078       C  0.30829785  0.88323006  0.21565563     0.17100
C1079       C  0.30685272  0.86305685  0.23894538     0.03300
C1080       C  0.30619088  0.84060854  0.22230859    -0.11800
C1081       C  0.30676907  0.83782980  0.18261662    -0.02900
C1082       C  0.30878899  0.85827674  0.15947409     0.02600
C1083       C  0.30630546  0.90742102  0.23045597     0.09400
N1084       N  0.30501992  0.86494306  0.27924118     0.65800
H1085       H  0.30483695  0.82530932  0.24083175     0.18700
N1086       N  0.30953509  0.85693912  0.11900657     0.76300
H1087       H  0.31074116  0.89623205  0.15829059     0.10200
C1088       C  0.32499611  0.91856312  0.25034002     0.03900
C1089       C  0.32408996  0.94298896  0.25685414    -0.04800
C1090       C  0.30540208  0.95646741  0.24215986    -0.23200
C1091       C  0.28618518  0.94516047  0.22403346     0.13200
C1092       C  0.28667948  0.92068044  0.21868684    -0.12300
N1093       N  0.34603978  0.90600632  0.26032131     0.64800
H1094       H  0.33884318  0.95173347  0.27105414     0.12700
N1095       N  0.26602714  0.95815810  0.21120132     0.61500
H1096       H  0.27218342  0.91208041  0.20360271     0.08800
O1097       O  0.29076170  0.86026958  0.10022254    -0.40000
O1098       O  0.32929408  0.85847317  0.10245315    -0.39200
O1099       O  0.28470826  0.86466091  0.29414557    -0.39200
O1100       O  0.32274789  0.85967100  0.29938563    -0.36900
O1101       O  0.24870569  0.96075386  0.23334204    -0.37800
O1102       O  0.26287271  0.96099805  0.17606155    -0.33900
O1103       O  0.36287921  0.90526760  0.23687583    -0.35300
O1104       O  0.35022546  0.90172835  0.29480446    -0.39600
C1105       C  0.42045388  0.76103632  0.47008159    -0.13300
C1106       C  0.43728942  0.76139827  0.44104168     0.17100
C1107       C  0.43038456  0.75643950  0.40363268     0.03300
C1108       C  0.40654136  0.75251669  0.39535882    -0.11800
C1109       C  0.38911414  0.75368454  0.42381404    -0.02900
C1110       C  0.39643906  0.75716475  0.46194089     0.02600
C1111       C  0.46129068  0.77003291  0.44953084     0.09400
N1112       N  0.44719487  0.75652615  0.37339486     0.65800
H1113       H  0.40169310  0.74945287  0.36599526     0.18700
N1114       N  0.37990287  0.75772508  0.49255879     0.76300
H1115       H  0.42587234  0.76482156  0.49900391     0.10200
C1116       C  0.46605751  0.79461538  0.44985174     0.03900
C1117       C  0.48874571  0.80283792  0.45920163    -0.04800
C1118       C  0.50666116  0.78672092  0.46813558    -0.23200
C1119       C  0.50171092  0.76218050  0.46896408     0.13200
C1120       C  0.47907051  0.75392104  0.45925850    -0.12300
N1121       N  0.44770520  0.81132179  0.44202662     0.64800
H1122       H  0.49227366  0.82177328  0.46009977     0.12700
N1123       N  0.51919711  0.74570080  0.48163613     0.61500
H1124       H  0.47519646  0.73504101  0.46007070     0.08800
O1125       O  0.37282080  0.77751393  0.50477871    -0.40000
O1126       O  0.37729719  0.73948121  0.51294490    -0.39200
O1127       O  0.45627495  0.73714994  0.36311955    -0.39200
O1128       O  0.44819925  0.77418500  0.35141531    -0.36900
O1129       O  0.52142828  0.74149188  0.51660592    -0.37800
O1130       O  0.53432945  0.73781680  0.45866895    -0.33900
O1131       O  0.43490818  0.81880198  0.46871838    -0.35300
O1132       O  0.44205289  0.81583537  0.40815733    -0.39600
C1133       C  0.34176176  0.86316772  0.40334986    -0.13300
C1134       C  0.32264818  0.87412596  0.42155729     0.17100
C1135       C  0.30262169  0.86004414  0.43094005     0.03300
C1136       C  0.30249270  0.83548587  0.42353411    -0.11800
C1137       C  0.32165322  0.82449408  0.40544500    -0.02900
C1138       C  0.34140264  0.83875928  0.39498341     0.02600
C1139       C  0.32296209  0.90055891  0.42631801     0.09400
N1140       N  0.28212416  0.87038489  0.44773620     0.65800
H1141       H  0.28706032  0.82502143  0.43136452     0.18700
N1142       N  0.36153489  0.82875244  0.37652603     0.76300
H1143       H  0.35690383  0.87376752  0.39462813     0.10200
C1144       C  0.34081317  0.91273827  0.44718327     0.03900
C1145       C  0.34186687  0.93779688  0.44692515    -0.04800
C1146       C  0.32589460  0.95109911  0.42508423    -0.23200
C1147       C  0.30815155  0.93880415  0.40425436     0.13200
C1148       C  0.30658982  0.91395977  0.40565856    -0.12300
N1149       N  0.35867943  0.89994331  0.46726124     0.64800
H1150       H  0.35614787  0.94680762  0.46188318     0.12700
N1151       N  0.29221066  0.95116300  0.37983345     0.61500
H1152       H  0.29328180  0.90500022  0.38850099     0.08800
O1153       O  0.37933027  0.82290520  0.39610316    -0.40000
O1154       O  0.36375943  0.83117402  0.34113675    -0.39200
O1155       O  0.26413532  0.87420658  0.42730086    -0.39200
O1156       O  0.27981883  0.86974373  0.48329076    -0.36900
O1157       O  0.29528852  0.94980915  0.34450352    -0.37800
O1158       O  0.27196134  0.95655132  0.39208763    -0.33900
O1159       O  0.37892487  0.89764330  0.45260378    -0.35300
O1160       O  0.35608213  0.89598103  0.50221161    -0.39600
C1161       C  0.12436845  0.73521949  0.10103203    -0.13300
C1162       C  0.13799603  0.75369528  0.11700849     0.17100
C1163       C  0.12670444  0.77506308  0.12677208     0.03300
C1164       C  0.10198078  0.77683535  0.12360535    -0.18200
C1165       C  0.08799708  0.75758080  0.11095069    -0.02900
C1166       C  0.09956295  0.73704414  0.09765332     0.02600
C1167       C  0.16346830  0.74962416  0.12614090     0.09400
N1168       N  0.13977742  0.79431618  0.14326554     0.65800
H1169       H  0.09345748  0.79279237  0.13385690     0.18700
N1170       N  0.08638344  0.71710156  0.08375517     0.76300
H1171       H  0.13291465  0.71881738  0.09286501     0.10200
C1172       C  0.17003900  0.73533882  0.15718503     0.03900
C1173       C  0.19404252  0.73095183  0.16472144    -0.04800
C1174       C  0.21215377  0.74042962  0.14173802    -0.23200
C1175       C  0.20545354  0.75482427  0.11046354     0.13200
C1176       C  0.18131312  0.75936074  0.10318710    -0.12300
N1177       N  0.15246688  0.72520469  0.18154267     0.64800
H1178       H  0.19846269  0.71980478  0.18872945     0.12700
N1179       N  0.22278401  0.76536644  0.08612878     0.61500
H1180       H  0.17646233  0.77035256  0.07920351     0.08800
O1181       O  0.08145894  0.70027667  0.10606168    -0.40000
O1182       O  0.08523135  0.71359038  0.04844453    -0.39200
O1183       O  0.14502678  0.81210410  0.12313667    -0.39200
O1184       O  0.14114285  0.79594763  0.17889754    -0.36900
O1185       O  0.22770092  0.75530575  0.05517092    -0.37800
O1186       O  0.22830839  0.78694897  0.09069480    -0.33900
O1187       O  0.14912575  0.70301287  0.18155720    -0.35300
O1188       O  0.14371770  0.73764106  0.20771013    -0.39600
C1189       C  0.91210148  0.76588990  0.13418418    -0.13300
C1190       C  0.92226032  0.75808050  0.10010394     0.17100
C1191       C  0.90712655  0.74922814  0.07135204     0.03300
C1192       C  0.88263448  0.74700209  0.07809134    -0.11800
C1193       C  0.87276772  0.75285157  0.11349835    -0.02900
C1194       C  0.88781214  0.76316624  0.14133160     0.02600
C1195       C  0.94853928  0.75516436  0.09945657     0.09400
N1196       N  0.91636820  0.74055871  0.03638013     0.65800
H1197       H  0.87158731  0.73900703  0.05627689     0.18700
N1198       N  0.87905234  0.77018664  0.17762576     0.76300
H1199       H  0.92345521  0.77279310  0.15656841     0.10200
C1200       C  0.96408597  0.76828036  0.07583817     0.03900
C1201       C  0.98881239  0.76718208  0.08189361    -0.04800
C1202       C  0.99831914  0.75304693  0.11098986    -0.23200
C1203       C  0.98271889  0.73908058  0.13302895     0.13200
C1204       C  0.95829170  0.74020392  0.12704165    -0.12300
N1205       N  0.95521696  0.78357625  0.04688767     0.64800
H1206       H  0.00048757  0.77821986  0.06494437     0.12700
N1207       N  0.99137890  0.72375847  0.16212916     0.61500
H1208       H  0.94668383  0.72975663  0.14507800     0.08800
O1209       O  0.88157077  0.75640066  0.20554640    -0.40000
O1210       O  0.87469144  0.79182192  0.18359192    -0.39200
O1211       O  0.92134785  0.71881075  0.03356974    -0.39200
O1212       O  0.91290823  0.75242483  0.00655499    -0.36900
O1213       O  0.98761301  0.72902196  0.19634302    -0.37800
O1214       O  0.99691870  0.70272798  0.15375843    -0.33900
O1215       O  0.95244925  0.80532221  0.05421474    -0.35300
O1216       O  0.95685414  0.77711863  0.01272875    -0.39600
C1217       C  0.12458140  0.73687870  0.34313382    -0.13300
C1218       C  0.13755177  0.71595805  0.33840555     0.17100
C1219       C  0.12682330  0.69602251  0.32121295     0.03300
C1220       C  0.10366226  0.69772093  0.30739922    -0.11800
C1221       C  0.09082834  0.71876588  0.31168260    -0.02900
C1222       C  0.10124953  0.73838836  0.33019570     0.02600
C1223       C  0.16205215  0.71564982  0.35259810     0.09400
N1224       N  0.13863056  0.67368309  0.31948459     0.65800
H1225       H  0.09547639  0.68242477  0.29382314     0.18700
N1226       N  0.08873981  0.76014401  0.33507749     0.76300
H1227       H  0.13273498  0.75219497  0.35671128     0.10200
C1228       C  0.18146416  0.71766056  0.32779240     0.03900
C1229       C  0.20411939  0.72156689  0.34253347    -0.04800
C1230       C  0.20787069  0.72391548  0.38171672    -0.23200
C1231       C  0.18839002  0.72146505  0.40661625     0.13200
C1232       C  0.16573830  0.71724476  0.39179520    -0.12300
N1233       N  0.17835217  0.71772954  0.28757100     0.64800
H1234       H  0.21883456  0.72320182  0.32297621     0.12700
N1235       N  0.19085590  0.72496862  0.44659267     0.61500
H1236       H  0.15072271  0.71634293  0.41089316     0.08800
O1237       O  0.08220414  0.76605800  0.36792378    -0.40000
O1238       O  0.09005167  0.77581565  0.30959373    -0.39200
O1239       O  0.13555547  0.65897639  0.34603936    -0.39200
O1240       O  0.14634433  0.66637583  0.28806473    -0.36900
O1241       O  0.18795311  0.74550359  0.46012830    -0.37800
O1242       O  0.18963001  0.70724326  0.46840328    -0.33900
O1243       O  0.17864520  0.73738406  0.27039375    -0.35300
O1244       O  0.18271933  0.69904486  0.26917250    -0.39600
C1245       C  0.92635030  0.75466028  0.34083812    -0.13300
C1246       C  0.93041094  0.73688886  0.31381879     0.17100
C1247       C  0.91140458  0.72260087  0.30099901     0.03300
C1248       C  0.88880693  0.72604242  0.31584221    -0.11800
C1249       C  0.88489622  0.74329048  0.34375195    -0.02900
C1250       C  0.90374591  0.75802041  0.35584022     0.02600
C1251       C  0.95502616  0.73191780  0.30303311     0.09400
N1252       N  0.91480792  0.70428912  0.27350700     0.65800
H1253       H  0.87434074  0.71470910  0.30627022     0.18700
N1254       N  0.90014156  0.77683549  0.38236323     0.76300
H1255       H  0.94095372  0.76552005  0.35117344     0.10200
C1256       C  0.96913850  0.74909563  0.28461085     0.03900
C1257       C  0.99320574  0.74483132  0.27920111    -0.04800
C1258       C  0.00368132  0.72420632  0.29348655    -0.23200
C1259       C  0.98956440  0.70677173  0.31115181     0.13200
C1260       C  0.96529330  0.71070224  0.31560259    -0.12300
N1261       N  0.95958516  0.77135483  0.27282908     0.64800
H1262       H  0.00401977  0.75815497  0.26513465     0.12700
N1263       N  0.99944393  0.68490149  0.32399165     0.61500
H1264       H  0.95456630  0.69751474  0.33012120     0.08800
O1265       O  0.90580712  0.77378795  0.41665001    -0.40000
O1266       O  0.89736400  0.79769791  0.37012139    -0.39200
O1267       O  0.91483589  0.68288923  0.28416103    -0.39200
O1268       O  0.91154076  0.70892512  0.23888787    -0.36900
O1269       O  0.00367076  0.68217103  0.35886706    -0.37800
O1270       O  0.99817345  0.66685770  0.30279977    -0.33900
O1271       O  0.96267018  0.78937937  0.29363253    -0.35300
O1272       O  0.95384549  0.77420932  0.23853342    -0.39600
C1273       C  0.03037840  0.73000225  0.00005305    -0.13300
C1274       C  0.04309441  0.74637805  0.97805978     0.17100
C1275       C  0.05562166  0.76493310  0.99616961     0.03300
C1276       C  0.05547971  0.76666682  0.03578294    -0.11800
C1277       C  0.04303596  0.75011908  0.05803520    -0.02900
C1278       C  0.03027559  0.73160746  0.03972313     0.02600
C1279       C  0.04528801  0.72904795  0.43519092     0.09400
N1280       N  0.06894297  0.78187366  0.97472502     0.65800
H1281       H  0.06501651  0.78115411  0.04931662     0.18700
N1282       N  0.01799772  0.71367704  0.06074823     0.76300
H1283       H  0.02072817  0.71565181  0.98629711     0.10200
C1284       C  0.05689985  0.70981230  0.41806623     0.03900
C1285       C  0.05595291  0.70701833  0.37852454    -0.04800
C1286       C  0.04407448  0.72355475  0.35536700    -0.23200
C1287       C  0.03188892  0.74245424  0.37310459     0.13200
C1288       C  0.03238325  0.74474562  0.41262396    -0.12300
N1289       N  0.07078219  0.69384851  0.44033117     0.64800
H1290       H  0.06520635  0.69229897  0.36564335     0.12700
N1291       N  0.02047645  0.76065683  0.35182754     0.61500
H1292       H  0.02324557  0.75947430  0.42578114     0.08800
O1293       O  0.99579480  0.71168690  0.05703844    -0.40000
O1294       O  0.02952846  0.69626909  0.07343652    -0.39200
O1295       O  0.05970424  0.80153189  0.96629659    -0.39200
O1296       O  0.09265633  0.76805523  0.46670390    -0.36900
O1297       O  0.03297589  0.77718523  0.33805584    -0.37800
O1298       O  0.99868950  0.76427046  0.35734577    -0.33900
O1299       O  0.06165865  0.67475606  0.45231181    -0.35300
O1300       O  0.08882991  0.71496475  0.95472568    -0.39600
C1301       C  0.28323879  0.41199745  0.33658593    -0.13300
C1302       C  0.30450493  0.40030989  0.34524854     0.17100
C1303       C  0.32515772  0.41399945  0.35146460     0.03300
C1304       C  0.32376636  0.43885359  0.35302029    -0.11800
C1305       C  0.30208671  0.45055032  0.34780724    -0.02900
C1306       C  0.28195159  0.43697438  0.33737687     0.02600
C1307       C  0.30424286  0.37423788  0.35249776     0.09400
N1308       N  0.34739340  0.40285632  0.35863556     0.65800
H1309       H  0.33942673  0.44901483  0.36092037     0.18700
N1310       N  0.25969497  0.44808896  0.33033743     0.76300
H1311       H  0.26728244  0.40166736  0.33120717     0.10200
C1312       C  0.29885778  0.36545502  0.38883853     0.03900
C1313       C  0.29831837  0.34096658  0.39554406    -0.04800
C1314       C  0.30309388  0.32435854  0.36667374    -0.23200
C1315       C  0.30864836  0.33328658  0.33001740     0.13200
C1316       C  0.30915971  0.35802214  0.32337611    -0.12300
N1317       N  0.29386780  0.38123962  0.41950674     0.64800
H1318       H  0.29400881  0.33502775  0.42392938     0.12700
N1319       N  0.31361311  0.31771405  0.29907707     0.61500
H1320       H  0.31331791  0.36459316  0.29527677     0.08800
O1321       O  0.24483706  0.44972044  0.35686640    -0.40000
O1322       O  0.25288244  0.45092986  0.29652848    -0.39200
O1323       O  0.36220227  0.40101844  0.33206877    -0.39200
O1324       O  0.35406532  0.39952117  0.39238485    -0.36900
O1325       O  0.29737448  0.31281951  0.27556166    -0.37800
O1326       O  0.33491074  0.31397334  0.29012404    -0.33900
O1327       O  0.27263090  0.38425018  0.42948721    -0.35300
O1328       O  0.31037977  0.38712700  0.44192947    -0.39600
C1329       C  0.30993461  0.57936290  0.35465798    -0.13300
C1330       C  0.29111606  0.58960204  0.37504857     0.17100
C1331       C  0.27333061  0.57424477  0.38956076     0.03300
C1332       C  0.27497261  0.54961835  0.38449120    -0.11800
C1333       C  0.29405706  0.53936394  0.36527558    -0.02900
C1334       C  0.31174355  0.55450329  0.35025053     0.02600
C1335       C  0.29000220  0.61607921  0.38093732     0.09400
N1336       N  0.25421399  0.58309515  0.41185677     0.65800
H1337       H  0.26169973  0.53821500  0.39744159     0.18700
N1338       N  0.33251575  0.54494086  0.33311700     0.76300
H1339       H  0.32359618  0.59065738  0.34268022     0.10200
C1340       C  0.30902654  0.62937024  0.39705645     0.03900
C1341       C  0.30638615  0.65378514  0.40466981    -0.04800
C1342       C  0.28535437  0.66560216  0.39550697    -0.23200
C1343       C  0.26678573  0.65273210  0.37808769     0.13200
C1344       C  0.26917819  0.62829840  0.37101473    -0.12300
N1345       N  0.33102994  0.61841081  0.40655747     0.64800
H1346       H  0.32086467  0.66356301  0.41781695     0.12700
N1347       N  0.24496506  0.66415451  0.36886575     0.61500
H1348       H  0.25458666  0.61879341  0.35774799     0.08800
O1349       O  0.35084651  0.54191608  0.35312241    -0.40000
O1350       O  0.33429270  0.54490355  0.29746397    -0.39200
O1351       O  0.23371366  0.58382753  0.39745354    -0.39200
O1352       O  0.25638020  0.58354444  0.44748113    -0.36900
O1353       O  0.24288174  0.67489918  0.33765835    -0.37800
O1354       O  0.22943532  0.66684238  0.39416253    -0.33900
O1355       O  0.34841555  0.62093467  0.38443386    -0.35300
O1356       O  0.33483710  0.61236683  0.44045867    -0.39600
C1357       C  0.25351680  0.57388212  0.08682815    -0.13300
C1358       C  0.27086924  0.59018767  0.07529887     0.17100
C1359       C  0.28902366  0.58306349  0.05061734     0.03300
C1360       C  0.28936768  0.55973764  0.03736645    -0.11800
C1361       C  0.27253251  0.54318022  0.04996598    -0.02900
C1362       C  0.25423683  0.55035553  0.07445241     0.02600
C1363       C  0.27091206  0.61396474  0.09200503     0.09400
N1364       N  0.30836013  0.59860429  0.04171058     0.65800
H1365       H  0.30362484  0.55416352  0.01889385     0.18700
N1366       N  0.23595633  0.53428122  0.08615881     0.76300
H1367       H  0.23957091  0.57940507  0.10592878     0.10200
C1368       C  0.26396949  0.63395434  0.07099294     0.03900
C1369       C  0.26535193  0.65637273  0.08760868    -0.04800
C1370       C  0.27313795  0.65910839  0.12517706    -0.23200
C1371       C  0.27918206  0.63889843  0.14670107     0.13200
C1372       C  0.27813460  0.61649454  0.12980137    -0.12300
N1373       N  0.25476849  0.63172054  0.03333856     0.64800
H1374       H  0.26016703  0.67174675  0.07111515     0.12700
N1375       N  0.28763499  0.64086025  0.18483850     0.61500
H1376       H  0.28335111  0.60101332  0.14601393     0.08800
O1377       O  0.21758286  0.53222586  0.06586471    -0.40000
O1378       O  0.23503091  0.52801576  0.12047130    -0.39200
O1379       O  0.32686430  0.59804020  0.06190911    -0.39200
O1380       O  0.30922798  0.60824545  0.00948150    -0.36900
O1381       O  0.27347092  0.63703255  0.21182073    -0.37800
O1382       O  0.30966880  0.64017617  0.19109232    -0.33900
O1383       O  0.23258837  0.63115193  0.02850065    -0.35300
O1384       O  0.26795486  0.63671339  0.00559365    -0.39600
C1385       C  0.27906648  0.41447626  0.05390849    -0.13300
C1386       C  0.29871190  0.41125302  0.07784691     0.17100
C1387       C  0.31301212  0.43100633  0.08757351     0.03300
C1388       C  0.30722263  0.45345783  0.07368237    -0.11800
C1389       C  0.28750030  0.45664216  0.05002397    -0.02900
C1390       C  0.27351567  0.43684901  0.03960957     0.02600
C1391       C  0.30427875  0.38673739  0.08960366     0.09400
N1392       N  0.33408600  0.42859132  0.10973444     0.65800
H1393       H  0.31854995  0.46844475  0.08082054     0.18700
N1394       N  0.25342384  0.43913351  0.01511547     0.76300
H1395       H  0.26803036  0.39939875  0.04599798     0.10200
C1396       C  0.30358386  0.37935752  0.12774438     0.03900
C1397       C  0.30533985  0.35522144  0.13634518    -0.04800
C1398       C  0.30742283  0.33797716  0.10765712    -0.23200
C1399       C  0.30881162  0.34555261  0.06948890     0.13200
C1400       C  0.30739288  0.36972763  0.06102623    -0.12300
N1401       N  0.29957519  0.39572021  0.15801075     0.64800
H1402       H  0.30450872  0.34998153  0.16587858     0.12700
N1403       N  0.31039415  0.32907901  0.03874367     0.61500
H1404       H  0.30775339  0.37523155  0.03162428     0.08800
O1405       O  0.23303298  0.44089181  0.02942289    -0.40000
O1406       O  0.25534157  0.43338981  0.98066291    -0.39200
O1407       O  0.35323238  0.42379671  0.09308135    -0.39200
O1408       O  0.33502542  0.43843306  0.14185302    -0.36900
O1409       O  0.29164912  0.32245382  0.02204101    -0.37800
O1410       O  0.33009491  0.32618837  0.02257364    -0.33900
O1411       O  0.27850765  0.39988958  0.16778164    -0.35300
O1412       O  0.31608152  0.39960970  0.18151687    -0.39600
C1413       C  0.30306213  0.51142661  0.16002956    -0.13300
C1414       C  0.28733888  0.49737230  0.18121353     0.17100
C1415       C  0.26923247  0.48469230  0.16202157     0.03300
C1416       C  0.26749998  0.48592549  0.12242767    -0.11800
C1417       C  0.28318824  0.49999787  0.10119904    -0.02900
C1418       C  0.30125625  0.51279953  0.12040485     0.02600
C1419       C  0.28978713  0.49689727  0.22324806     0.09400
N1420       N  0.25256318  0.47030207  0.18216622     0.65800
H1421       H  0.25365514  0.47595365  0.10798972     0.18700
N1422       N  0.31864407  0.52635036  0.10034073     0.76300
H1423       H  0.31692928  0.52141288  0.17439614     0.10200
C1424       C  0.31056633  0.48850230  0.24104957     0.03900
C1425       C  0.31251999  0.48888864  0.28062447    -0.04800
C1426       C  0.29423750  0.49772978  0.30328383    -0.23200
C1427       C  0.27365423  0.50664783  0.28558730     0.13200
C1428       C  0.27158596  0.50609959  0.24587288    -0.12300
N1429       N  0.32951514  0.47865921  0.21951792     0.64800
H1430       H  0.32837398  0.48197270  0.29394462     0.12700
N1431       N  0.25436210  0.51554346  0.30738041     0.61500
H1432       H  0.25569048  0.51297239  0.23260958     0.08800
O1433       O  0.33696744  0.51596143  0.08860492    -0.40000
O1434       O  0.31949434  0.54853329  0.10544572    -0.39200
O1435       O  0.23181648  0.47794189  0.18710627    -0.39200
O1436       O  0.25641263  0.44835577  0.18556869    -0.36900
O1437       O  0.23754442  0.50166747  0.31593398    -0.37800
O1438       O  0.25093069  0.53766138  0.30834815    -0.33900
O1439       O  0.34747437  0.49139556  0.21246576    -0.35300
O1440       O  0.33121030  0.45636939  0.21725588    -0.39600
N1441       N  0.27896543  0.50318734  0.56922155    -0.02400
C1442       C  0.27640394  0.48396863  0.54655683     0.00100
C1443       C  0.27136485  0.49067096  0.50972953    -0.22700
C1444       C  0.27034245  0.51510611  0.50990671    -0.22900
C1445       C  0.27463145  0.52216398  0.54686067     0.00000
H1446       H  0.26876225  0.47911440  0.48550710     0.13800
H1447       H  0.26636812  0.52644777  0.48597043     0.13900
N1448       N  0.30528586  0.49517827  0.85061570    -0.02400
C1449       C  0.30637224  0.51392610  0.87528396     0.00100
C1450       C  0.31243513  0.50613119  0.91110006    -0.22700
C1451       C  0.31558233  0.48212651  0.90869932    -0.22900
C1452       C  0.31138519  0.47557828  0.87140055     0.00000
H1453       H  0.31429720  0.51685475  0.93645133     0.13800
H1454       H  0.32049559  0.47057294  0.93192010     0.13900
N1455       N  0.04588519  0.73779027  0.81521084    -0.02400
C1456       C  0.06642449  0.73619508  0.79540832     0.00100
C1457       C  0.06216300  0.73439047  0.75697009    -0.22700
C1458       C  0.03810690  0.73482633  0.75249640    -0.22900
C1459       C  0.02855048  0.73660205  0.78839361     0.00000
H1460       H  0.07517898  0.73237224  0.73472251     0.13800
H1461       H  0.02855864  0.73354058  0.72595398     0.13900
N1462       N  0.04328286  0.74739873  0.59525292    -0.02400
C1463       C  0.06169639  0.75432539  0.61797122     0.00100
C1464       C  0.05334939  0.76159382  0.65283107    -0.22700
C1465       C  0.02911334  0.75911814  0.65174997    -0.22900
C1466       C  0.02323319  0.75037398  0.61623689     0.00000
H1467       H  0.06379623  0.76821343  0.67643597     0.13800
H1468       H  0.01698495  0.76394247  0.67414145     0.13900
O1469       O  0.30797883  0.76769708  0.81485301    -0.79900
O1470       O  0.31044411  0.75474920  0.98711315    -0.64500
O1471       O  0.31403759  0.74113042  0.88174705    -1.11200
C1472       C  0.23209488  0.72933976  0.89300668     1.07000
O1473       O  0.28906200  0.72219264  0.99656855    -0.77800
O1474       O  0.27847530  0.69487147  0.93605522    -0.65300
Ni1475     Ni  0.33341696  0.75964125  0.84896420     1.34900
C1476       C  0.28167357  0.69019436  0.90126680     0.85800
O1477       O  0.34713020  0.75027778  0.93987518    -0.78300
O1478       O  0.36021091  0.75234902  0.87992450    -0.88600
C1479       C  0.30001553  0.74033344  0.00917981     0.85300
O1480       O  0.33058160  0.78996886  0.87299262    -0.66800
O1481       O  0.23750601  0.72061888  0.92522133    -0.86100
C1482       C  0.32088045  0.79707649  0.90333669     0.86200
C1483       C  0.36374918  0.75008421  0.91550317     1.07700
H1484       H  0.27252152  0.76056300  0.93308170     0.39500
O1485       O  0.27984664  0.74556462  0.92818855    -1.08700
O1486       O  0.28088890  0.70596746  0.87540876    -0.65400
Ni1487     Ni  0.28047705  0.74052944  0.87485933     1.26300
O1488       O  0.31159979  0.78272207  0.92722165    -0.65600
O1489       O  0.24692342  0.73971500  0.87124916    -0.77900
C1490       C  0.29316570  0.75311351  0.80045192     0.85600
O1491       O  0.28231107  0.73794406  0.82081952    -0.65100
Ni1492     Ni  0.26437244  0.72214683  0.95891193     1.27400
Ni1493     Ni  0.31334298  0.74852764  0.93437429     1.26100
H1494       H  0.31988049  0.72501088  0.87965002     0.40100
O1495       O  0.27007996  0.74497215  0.74538040    -0.79900
O1496       O  0.28583050  0.74205112  0.57002709    -0.64500
O1497       O  0.29289221  0.73538832  0.67628035    -1.11200
C1498       C  0.31330982  0.81762525  0.67248257     1.07000
O1499       O  0.31729839  0.76550225  0.56170098    -0.77800
O1500       O  0.34416724  0.77596452  0.62286647    -0.65300
Ni1501     Ni  0.26824918  0.72120041  0.70590158     1.34900
C1502       C  0.34918471  0.76559442  0.65381658     0.85800
O1503       O  0.28366927  0.70522315  0.61670241    -0.78300
O1504       O  0.26534034  0.69509445  0.67096242    -0.88600
C1505       C  0.30156045  0.75126208  0.54905819     0.85300
O1506       O  0.24207087  0.73731692  0.68263891    -0.66800
O1507       O  0.31678787  0.81509744  0.63703340    -0.86100
C1508       C  0.23795583  0.74292279  0.64825606     0.86200
C1509       C  0.27338197  0.69016590  0.63815384     1.07700
H1510       H  0.27873453  0.77987634  0.63015360     0.39500
O1511       O  0.29372229  0.77163408  0.63237314    -1.08700
O1512       O  0.33374045  0.76118061  0.67926322    -0.65400
Ni1513     Ni  0.30024707  0.76787155  0.68535382     1.26300
O1514       O  0.25425492  0.74311689  0.62332844    -0.65600
O1515       O  0.30714274  0.80056437  0.69398378    -0.77900
C1516       C  0.28917519  0.75356742  0.75924758     0.85600
O1517       O  0.30508208  0.76241283  0.73804657    -0.65100
Ni1518     Ni  0.31601552  0.78897508  0.60166956     1.27400
Ni1519     Ni  0.28840245  0.73844385  0.62320463     1.26100
H1520       H  0.30691867  0.72602398  0.68037333     0.40100
N1521       N  0.54528035  0.75991940  0.67928385    -0.02400
C1522       C  0.52607373  0.75637627  0.65612797     0.00100
C1523       C  0.53183721  0.76151847  0.61897046    -0.22700
C1524       C  0.55527095  0.76800560  0.61873714    -0.22900
C1525       C  0.56325364  0.76681773  0.65577348     0.00000
H1526       H  0.52015868  0.76082409  0.59458031     0.13800
H1527       H  0.56576786  0.77178912  0.59381138     0.13900
N1528       N  0.55201871  0.73417953  0.96254874    -0.02400
C1529       C  0.53425717  0.72664950  0.98546184     0.00100
C1530       C  0.54292385  0.72019333  0.02058034    -0.22700
C1531       C  0.56708238  0.72363033  0.01927323    -0.22900
C1532       C  0.57217562  0.73224442  0.98344913     0.00000
H1533       H  0.53269237  0.71452668  0.04490448     0.13800
H1534       H  0.57930941  0.72166185  0.04275066     0.13900
O1535       O  0.80512367  0.73367361  0.95904632    -0.79900
O1536       O  0.80500138  0.74879524  0.78904497    -0.64500
O1537       O  0.81058398  0.76138115  0.89361509    -1.11200
C1538       C  0.72894722  0.77454036  0.88850797     1.07000
O1539       O  0.78083911  0.77914512  0.77732340    -0.77800
O1540       O  0.77577599  0.80748526  0.83979706    -0.65300
Ni1541     Ni  0.83046278  0.74242763  0.92501926     1.34900
C1542       C  0.77894245  0.81253057  0.87459909     0.85800
O1543       O  0.84202304  0.75214468  0.83503480    -0.78300
O1544       O  0.85718754  0.75068509  0.89412720    -0.88600
C1545       C  0.79469988  0.76275077  0.76633353     0.85300
O1546       O  0.82775509  0.71229841  0.89910139    -0.66800
O1547       O  0.73370802  0.78391629  0.85643236    -0.86100
C1548       C  0.81691111  0.70561309  0.86918080     0.86200
C1549       C  0.85939707  0.75206385  0.85822151     1.07700
H1550       H  0.76745351  0.74209330  0.84391790     0.39500
O1551       O  0.77513072  0.75729221  0.84859776    -1.08700
O1552       O  0.77794849  0.79673089  0.90062949    -0.65400
Ni1553     Ni  0.77726601  0.76203199  0.90180482     1.26300
O1554       O  0.80615112  0.72018569  0.84751801    -0.65600
O1555       O  0.74392307  0.76268839  0.90766614    -0.77900
C1556       C  0.79122445  0.74845537  0.97468552     0.85600
O1557       O  0.78068291  0.76430735  0.95544925    -0.65100
Ni1558     Ni  0.75882511  0.78074393  0.81927839     1.27400
Ni1559     Ni  0.80850893  0.75441821  0.84136356     1.26100
H1560       H  0.81673246  0.77744721  0.89577035     0.40100
O1561       O  0.76901508  0.75802023  0.52944253    -0.79900
O1562       O  0.78448839  0.76866598  0.70247740    -0.64500
O1563       O  0.79389220  0.76999861  0.59596353    -1.11200
C1564       C  0.81578531  0.69070335  0.60978651     1.07000
O1565       O  0.81594394  0.74654712  0.71570591    -0.77800
O1566       O  0.84363775  0.74346165  0.65302716    -0.65300
Ni1567     Ni  0.77067797  0.78453734  0.56367404     1.34900
C1568       C  0.84817168  0.74505126  0.61789404     0.85800
O1569       O  0.78427761  0.80323609  0.65203806    -0.78300
O1570       O  0.77137541  0.81285817  0.59364169    -0.88600
C1571       C  0.79864679  0.75935522  0.72587276     0.85300
O1572       O  0.74266773  0.77341775  0.58901962    -0.66800
O1573       O  0.82541039  0.69841179  0.64013169    -0.86100
C1574       C  0.73856308  0.76711389  0.62302733     0.86200
C1575       C  0.77739182  0.81817006  0.62744797     1.07700
H1576       H  0.77954347  0.72776693  0.65132525     0.39500
O1577       O  0.79391864  0.73648755  0.64532767    -1.08700
O1578       O  0.83255856  0.74081889  0.59251515    -0.65400
Ni1579     Ni  0.79831462  0.73656670  0.59163169     1.26300
O1580       O  0.75489290  0.76488417  0.64762308    -0.65600
O1581       O  0.80206101  0.70324037  0.58949875    -0.77900
C1582       C  0.78718450  0.74787266  0.51604590     0.85600
O1583       O  0.80199132  0.73798803  0.53787877    -0.65100
Ni1584     Ni  0.81948426  0.72394845  0.67524128     1.27400
Ni1585     Ni  0.78873478  0.76989249  0.64935368     1.26100
H1586       H  0.80877909  0.77804485  0.59129290     0.40100
N1587       N  0.84728126  0.50428285  0.54789268    -0.02400
C1588       C  0.84540572  0.52366720  0.52530861     0.00100
C1589       C  0.84732005  0.51754195  0.48752878    -0.22700
C1590       C  0.84973625  0.49334012  0.48650589    -0.22900
C1591       C  0.84961699  0.48570081  0.52369255     0.00000
H1592       H  0.84607711  0.52930327  0.46334382     0.13800
H1593       H  0.85051693  0.48235345  0.46139623     0.13900
N1594       N  0.82537252  0.50885222  0.83067169    -0.02400
C1595       C  0.82315255  0.52798646  0.85439192     0.00100
C1596       C  0.82779423  0.52109926  0.89139024    -0.22700
C1597       C  0.83263224  0.49726043  0.89082434    -0.22900
C1598       C  0.83110650  0.49009688  0.85352107     0.00000
H1599       H  0.82806252  0.53231839  0.91630356     0.13800
H1600       H  0.83623728  0.48615514  0.91519425     0.13900
N1601       N  0.78807018  0.00763471  0.91687248    -0.02400
C1602       C  0.78176932  0.98915273  0.89371812     0.00100
C1603       C  0.78165188  0.99660470  0.85643487    -0.22700
C1604       C  0.78766438  0.02029247  0.85669317    -0.22900
C1605       C  0.79170072  0.02683779  0.89391194     0.00000
H1606       H  0.77816925  0.98590416  0.83152460     0.13800
H1607       H  0.78843764  0.03173474  0.83231226     0.13900
N1608       N  0.80772159  0.00083043  0.70122044    -0.02400
C1609       C  0.80972481  0.98081955  0.72213809     0.00100
C1610       C  0.81285487  0.98625680  0.76004468    -0.22700
C1611       C  0.81288425  0.01068279  0.76236215    -0.22900
C1612       C  0.80953660  0.01903523  0.72594871     0.00000
H1613       H  0.81421054  0.97398033  0.78351445     0.13800
H1614       H  0.81569067  0.02112055  0.78757277     0.13900
O1615       O  0.81143834  0.23493784  0.78779187    -0.79900
O1616       O  0.81223160  0.24641372  0.95901865    -0.64500
O1617       O  0.80469218  0.26038966  0.85496965    -1.11200
C1618       C  0.88685621  0.27469077  0.85933599     1.07000
O1619       O  0.83418999  0.27882674  0.96898822    -0.77800
O1620       O  0.84269272  0.30765983  0.90983730    -0.65300
Ni1621     Ni  0.78587899  0.24090117  0.82252103     1.34900
C1622       C  0.83640327  0.31302667  0.87637902     0.85800
O1623       O  0.77431341  0.24834634  0.91368794    -0.78300
O1624       O  0.75906468  0.24607396  0.85449452    -0.88600
C1625       C  0.82211363  0.26128991  0.98110815     0.85300
O1626       O  0.79056101  0.21052209  0.84603605    -0.66800
O1627       O  0.88302018  0.28166335  0.89321673    -0.86100
C1628       C  0.80068856  0.20373302  0.87636358     0.86200
C1629       C  0.75696860  0.24667933  0.89049259     1.07700
H1630       H  0.84875344  0.24189173  0.90111713     0.39500
O1631       O  0.84077426  0.25694047  0.89827328    -1.08700
O1632       O  0.83536587  0.29772573  0.84967797    -0.65400
Ni1633     Ni  0.83775736  0.26336960  0.84564602     1.26300
O1634       O  0.81058842  0.21837100  0.89929416    -0.65600
O1635       O  0.87093838  0.26596010  0.83782866    -0.77900
C1636       C  0.82415642  0.25121764  0.77307266     0.85600
O1637       O  0.83342676  0.26751864  0.79301336    -0.65100
Ni1638     Ni  0.85736443  0.27958074  0.92912110     1.27400
Ni1639     Ni  0.80764938  0.25245946  0.90675823     1.26100
H1640       H  0.79771145  0.27598579  0.85388018     0.40100
O1641       O  0.84569243  0.26247316  0.71908139    -0.79900
O1642       O  0.83248733  0.26459428  0.54434495    -0.64500
O1643       O  0.82236669  0.27093474  0.65024135    -1.11200
C1644       C  0.80637997  0.18853139  0.64254758     1.07000
O1645       O  0.79962344  0.24329590  0.53572412    -0.77800
O1646       O  0.77238447  0.23233362  0.59575195    -0.65300
Ni1647     Ni  0.84516687  0.28714446  0.68153853     1.34900
C1648       C  0.76770605  0.23959251  0.62892936     0.85800
O1649       O  0.83258817  0.30152777  0.59089445    -0.78300
O1650       O  0.84584537  0.31402730  0.64769992    -0.88600
C1651       C  0.81656616  0.25586549  0.52293405     0.85300
O1652       O  0.87339281  0.27395722  0.66026765    -0.66800
O1653       O  0.79985840  0.19279494  0.60858753    -0.86100
C1654       C  0.87822301  0.26621952  0.62739825     0.86200
C1655       C  0.83980423  0.31775382  0.61332416     1.07700
H1656       H  0.83832576  0.22701518  0.60213504     0.39500
O1657       O  0.82354897  0.23520428  0.60534208    -1.08700
O1658       O  0.78351604  0.24169565  0.65462316    -0.65400
Ni1659     Ni  0.81759353  0.23774998  0.65833515     1.26300
O1660       O  0.86260475  0.26401481  0.60131440    -0.65600
O1661       O  0.81391576  0.20449265  0.66509532    -0.77900
C1662       C  0.82774457  0.25166108  0.73234132     0.85600
O1663       O  0.81272323  0.24163622  0.71096958    -0.65100
Ni1664     Ni  0.80049228  0.21917718  0.57428555     1.27400
Ni1665     Ni  0.82843053  0.26830846  0.59738013     1.26100
H1666       H  0.80755594  0.27901967  0.65328953     0.40100
N1667       N  0.57211025  0.24609424  0.67120907    -0.02400
C1668       C  0.55296556  0.25198380  0.64931842     0.00100
C1669       C  0.56027669  0.25969107  0.61402833    -0.22700
C1670       C  0.58447977  0.25848467  0.61362580    -0.22900
C1671       C  0.59144218  0.25007833  0.64867975     0.00000
H1672       H  0.54909073  0.26559308  0.59094586     0.13800
H1673       H  0.59589233  0.26345317  0.59027796     0.13900
N1674       N  0.57372385  0.20120715  0.94713526    -0.02400
C1675       C  0.59396981  0.19695357  0.96667367     0.00100
C1676       C  0.58853057  0.18914882  0.00283463    -0.22700
C1677       C  0.56417704  0.18879248  0.00564822    -0.22900
C1678       C  0.55555213  0.19639108  0.97106711     0.00000
H1679       H  0.60092853  0.18487468  0.02517301     0.13800
H1680       H  0.55395814  0.18382592  0.03034695     0.13900
N1681       N  0.31380610  0.99367249  0.93300839    -0.02400
C1682       C  0.31224886  0.97506628  0.90818758     0.00100
C1683       C  0.31616616  0.98295569  0.87163400    -0.22700
C1684       C  0.32052116  0.00694056  0.87367257    -0.22900
C1685       C  0.31927005  0.01316682  0.91147665     0.00000
H1686       H  0.31708019  0.97216617  0.84637574     0.13800
H1687       H  0.32445252  0.01860022  0.85008283     0.13900
N1688       N  0.29374681  0.00288413  0.72025054    -0.02400
C1689       C  0.29113873  0.02379650  0.73897008     0.00100
C1690       C  0.28433649  0.01990293  0.77606308    -0.22700
C1691       C  0.28275025  0.99568575  0.78047867    -0.22900
C1692       C  0.28847839  0.98566593  0.74589586     0.00000
H1693       H  0.28242152  0.03304520  0.79822133     0.13800
H1694       H  0.27896174  0.98635382  0.80659842     0.13900
N1695       N  0.07514224  0.28279189  0.79923696    -0.02400
C1696       C  0.05624581  0.28651737  0.77612639     0.00100
C1697       C  0.06340382  0.28802873  0.73872743    -0.22700
C1698       C  0.08752787  0.28500770  0.73862597    -0.22900
C1699       C  0.09424178  0.28161736  0.77595694     0.00000
H1700       H  0.05210727  0.28966466  0.71399667     0.13800
H1701       H  0.09859713  0.28354359  0.71374454     0.13900
N1702       N  0.07271749  0.24282567  0.58589525    -0.02400
C1703       C  0.09235888  0.23991899  0.60802868     0.00100
C1704       C  0.08606233  0.23737482  0.64560130    -0.22700
C1705       C  0.06177588  0.23858616  0.64694138    -0.22900
C1706       C  0.05392446  0.24169959  0.61009903     0.00000
H1707       H  0.09793713  0.23541808  0.66956189     0.13800
H1708       H  0.05096715  0.23790201  0.67223792     0.13900
O1709       O  0.31578209  0.26831500  0.96993775    -0.79900
O1710       O  0.30981304  0.25360545  0.80008205    -0.64500
O1711       O  0.30653546  0.24115296  0.90514241    -1.11200
C1712       C  0.38696186  0.22495253  0.89531216     1.07000
O1713       O  0.33319281  0.22301908  0.78651142    -0.77800
O1714       O  0.33718648  0.19376762  0.84871726    -0.65300
Ni1715     Ni  0.28914742  0.26187072  0.93748814     1.34900
C1716       C  0.33497999  0.18868960  0.88368929     0.85800
O1717       O  0.27388379  0.25142092  0.84844395    -0.78300
O1718       O  0.26107277  0.25647115  0.90805397    -0.88600
C1719       C  0.32012596  0.24030288  0.77652044     0.85300
O1720       O  0.29508600  0.29138268  0.91221838    -0.66800
O1721       O  0.38058718  0.21500026  0.86439794    -0.86100
C1722       C  0.30524577  0.29732759  0.88150839     0.86200
C1723       C  0.25729342  0.25348401  0.87273753     1.07700
H1724       H  0.34908462  0.25858253  0.85304580     0.39500
O1725       O  0.34091229  0.24385726  0.85807577    -1.08700
O1726       O  0.33785959  0.20433362  0.90971594    -0.65400
Ni1727     Ni  0.33997637  0.23902127  0.91146226     1.26300
O1728       O  0.31205093  0.28198799  0.85747937    -0.65600
O1729       O  0.37338682  0.23745813  0.91565042    -0.77900
C1730       C  0.32821735  0.25222711  0.98510725     0.85600
O1731       O  0.33781895  0.23619774  0.96517921    -0.65100
Ni1732     Ni  0.35536107  0.21967016  0.82802453     1.27400
Ni1733     Ni  0.30750056  0.24795326  0.85258361     1.26100
H1734       H  0.29960240  0.22558167  0.90805049     0.40100
O1735       O  0.34386445  0.24225353  0.54000688    -0.79900
O1736       O  0.33151065  0.23643527  0.71299313    -0.64500
O1737       O  0.31956673  0.23328091  0.60741002    -1.11200
C1738       C  0.30088267  0.31350871  0.61798847     1.07000
O1739       O  0.30044672  0.25913014  0.72617105    -0.77800
O1740       O  0.27237380  0.26065756  0.66353996    -0.65300
Ni1741     Ni  0.34053129  0.21621644  0.57490522     1.34900
C1742       C  0.26735413  0.25852376  0.62861006     0.85800
O1743       O  0.32992125  0.20091707  0.66488453    -0.78300
O1744       O  0.33813910  0.18836361  0.60612142    -0.88600
C1745       C  0.31709868  0.24536134  0.73625082     0.85300
O1746       O  0.36985039  0.22520552  0.59849528    -0.66800
O1747       O  0.29059838  0.30567655  0.64772211    -0.86100
C1748       C  0.37556492  0.23388366  0.63058669     0.86200
C1749       C  0.33412181  0.18451436  0.64115617     1.07700
H1750       H  0.33629112  0.27636004  0.66038190     0.39500
O1751       O  0.32169599  0.26772711  0.65486488    -1.08700
O1752       O  0.28227190  0.26364018  0.60278092    -0.65400
Ni1753     Ni  0.31658722  0.26688762  0.60133651     1.26300
O1754       O  0.36021940  0.23880844  0.65574682    -0.65600
O1755       O  0.31412984  0.30054023  0.59768170    -0.77900
C1756       C  0.32658294  0.25388551  0.52646053     0.85600
O1757       O  0.31234502  0.26467313  0.54795776    -0.65100
Ni1758     Ni  0.29656237  0.28089604  0.68438744     1.27400
Ni1759     Ni  0.32624463  0.23434788  0.66025641     1.26100
H1760       H  0.30421128  0.22593010  0.60437321     0.40100
C1761       C  0.15489580  0.26285396  0.59398352    -0.13300
C1762       C  0.16798911  0.24169338  0.59310704     0.17100
C1763       C  0.15533516  0.21983199  0.59234133     0.03300
C1764       C  0.13040821  0.21966003  0.59408952    -0.11800
C1765       C  0.11756198  0.24086900  0.59600740    -0.02900
C1766       C  0.13004288  0.26261150  0.59524954     0.02600
C1767       C  0.19442222  0.24317375  0.59797377     0.09400
N1768       N  0.16740813  0.19761240  0.59075071     0.65800
H1769       H  0.12106098  0.20279240  0.59559657     0.18700
N1770       N  0.11787215  0.28463171  0.59902869     0.76300
H1771       H  0.16399798  0.27978889  0.59629937     0.10200
C1772       C  0.20851519  0.25910428  0.57643511     0.03900
C1773       C  0.23233139  0.26316883  0.58627261    -0.04800
C1774       C  0.24283866  0.25158996  0.61721666    -0.23200
C1775       C  0.22933895  0.23454851  0.63723964     0.13200
C1776       C  0.20534380  0.23076623  0.62789857    -0.12300
N1777       N  0.19896854  0.27147415  0.54452357     0.64800
H1778       H  0.24250616  0.27603650  0.57010812     0.12700
N1779       N  0.23995505  0.22021879  0.66601647     0.61500
H1780       H  0.19502570  0.21871918  0.64525592     0.08800
O1781       O  0.11514960  0.29755762  0.57015762    -0.40000
O1782       O  0.11538543  0.29359763  0.63157075    -0.39200
O1783       O  0.16824255  0.18478752  0.62006543    -0.39200
O1784       O  0.17115169  0.18823868  0.55883697    -0.36900
O1785       O  0.24515496  0.19894756  0.65862008    -0.37800
O1786       O  0.23979248  0.22710123  0.70005318    -0.33900
O1787       O  0.19506196  0.29346149  0.54723041    -0.35300
O1788       O  0.20080036  0.26231203  0.51201016    -0.39600
C1789       C  0.16082630  0.27761359  0.78695252    -0.13300
C1790       C  0.16278770  0.25850683  0.81210680     0.17100
C1791       C  0.14226782  0.24628298  0.82386700     0.03300
C1792       C  0.12013686  0.25360196  0.81085395    -0.11800
C1793       C  0.11802903  0.27353599  0.78728088    -0.02900
C1794       C  0.13869475  0.28513020  0.77427892     0.02600
C1795       C  0.18622507  0.25349558  0.82837238     0.09400
N1796       N  0.14354920  0.22676351  0.84956535     0.65800
H1797       H  0.10458351  0.24360064  0.81935011     0.18700
N1798       N  0.13754812  0.30515175  0.74950559     0.76300
H1799       H  0.17652821  0.28739103  0.77829322     0.10200
C1800       C  0.20554140  0.24802019  0.80500014     0.03900
C1801       C  0.22840159  0.24777099  0.82011115    -0.04800
C1802       C  0.23247472  0.25259958  0.85871993    -0.23200
C1803       C  0.21271970  0.25679834  0.88246684     0.13200
C1804       C  0.18992021  0.25747904  0.86703774    -0.12300
N1805       N  0.20216659  0.24281973  0.76572480     0.64800
H1806       H  0.24300067  0.24390371  0.80124063     0.12700
N1807       N  0.21517336  0.25932843  0.92247768     0.61500
H1808       H  0.17508803  0.26175731  0.88523739     0.08800
O1809       O  0.13637768  0.32574182  0.76350907    -0.40000
O1810       O  0.14361112  0.30273857  0.71530892    -0.39200
O1811       O  0.13674137  0.22962465  0.88324675    -0.39200
O1812       O  0.14561450  0.20597368  0.83667342    -0.36900
O1813       O  0.21522257  0.27979375  0.93714698    -0.37800
O1814       O  0.21128931  0.24141043  0.94301866    -0.33900
O1815       O  0.20766514  0.25819595  0.74120504    -0.35300
O1816       O  0.19830514  0.22164293  0.75554831    -0.39600
C1817       C  0.06125743  0.26200773  0.48480287    -0.13300
C1818       C  0.07217741  0.24373348  0.46444703     0.17100
C1819       C  0.08303646  0.22508966  0.48460754     0.03300
C1820       C  0.08279625  0.22511107  0.52440330    -0.11800
C1821       C  0.07214484  0.24356139  0.54489795    -0.02900
C1822       C  0.06120858  0.26219276  0.52460379     0.02600
C1823       C  0.07552479  0.26459704  0.91721785     0.09400
N1824       N  0.09528916  0.20657272  0.46529856     0.65800
H1825       H  0.09109347  0.21062483  0.53951721     0.18700
N1826       N  0.05094120  0.28202551  0.54355429     0.76300
H1827       H  0.05314528  0.27658661  0.46958024     0.10200
C1828       C  0.06170802  0.25144808  0.89105794     0.03900
C1829       C  0.06145904  0.25788790  0.85258602    -0.04800
C1830       C  0.07471842  0.27740725  0.83942282    -0.23200
C1831       C  0.08862614  0.29048350  0.86561990     0.13200
C1832       C  0.08887793  0.28402619  0.90406050    -0.12300
N1833       N  0.04715178  0.23206272  0.90325117     0.64800
H1834       H  0.05099660  0.24747390  0.83274162     0.12700
N1835       N  0.10179019  0.31097223  0.85393281     0.61500
H1836       H  0.09923486  0.29453899  0.92395862     0.08800
O1837       O  0.02928249  0.28644799  0.53811096    -0.40000
O1838       O  0.06436633  0.29837887  0.55571254    -0.39200
O1839       O  0.11755289  0.20792380  0.46236734    -0.39200
O1840       O  0.09165921  0.20465288  0.94460802    -0.36900
O1841       O  0.09165233  0.33087648  0.85317964    -0.37800
O1842       O  0.12415296  0.31028793  0.85399355    -0.33900
O1843       O  0.02587185  0.23594443  0.91208238    -0.35300
O1844       O  0.04557908  0.19288500  0.41175680    -0.39600
C1845       C  0.29411679  0.08889106  0.71138691    -0.13300
C1846       C  0.31618139  0.08973870  0.69324105     0.17100
C1847       C  0.33030443  0.06931854  0.69191716     0.03300
C1848       C  0.32174163  0.04812737  0.70721867    -0.11800
C1849       C  0.29933862  0.04695477  0.72428974    -0.02900
C1850       C  0.28572330  0.06777583  0.72744411     0.02600
C1851       C  0.32461151  0.11270651  0.67868360     0.09400
N1852       N  0.35383247  0.07009079  0.67713859     0.65800
H1853       H  0.33293663  0.03258989  0.70647072     0.18700
N1854       N  0.26351907  0.06790437  0.74685502     0.76300
H1855       H  0.28350641  0.10482451  0.71348193     0.10200
C1856       C  0.32366281  0.11826441  0.63983334     0.03900
C1857       C  0.32822783  0.14153595  0.62802893    -0.04800
C1858       C  0.33315926  0.15961314  0.65451634    -0.23200
C1859       C  0.33508532  0.15359728  0.69339419     0.13200
C1860       C  0.33095361  0.13024089  0.70495216    -0.12300
N1861       N  0.31624006  0.10103965  0.61239200     0.64800
H1862       H  0.32648423  0.14568091  0.59814590     0.12700
N1863       N  0.34033741  0.17100231  0.72177694     0.61500
H1864       H  0.33164840  0.12595707  0.73490564     0.08800
O1865       O  0.26275701  0.07585611  0.78030636    -0.40000
O1866       O  0.24456441  0.06640261  0.72786556    -0.39200
O1867       O  0.37092867  0.07376968  0.69961608    -0.39200
O1868       O  0.35786574  0.06082828  0.64526248    -0.36900
O1869       O  0.32345896  0.18079746  0.73906021    -0.37800
O1870       O  0.36092874  0.17198804  0.73583811    -0.33900
O1871       O  0.29469527  0.10015818  0.60265938    -0.35300
O1872       O  0.33156043  0.09163235  0.59128226    -0.39600
C1873       C  0.34486765  0.07555747  0.91984940    -0.13300
C1874       C  0.32437612  0.08888228  0.92638384     0.17100
C1875       C  0.30305110  0.07659963  0.93482896     0.03300
C1876       C  0.30222777  0.05155952  0.93384241    -0.11800
C1877       C  0.32231941  0.03834943  0.92415754    -0.02900
C1878       C  0.34401048  0.05061953  0.91845192     0.02600
C1879       C  0.32504789  0.11500007  0.91823615     0.09400
N1880       N  0.28184556  0.08928745  0.94303548     0.65800
H1881       H  0.28542256  0.04249797  0.93810685     0.18700
N1882       N  0.36518704  0.03808892  0.90935281     0.76300
H1883       H  0.36137521  0.08459790  0.91322077     0.10200
C1884       C  0.33856843  0.13116240  0.94021004     0.03900
C1885       C  0.34050426  0.15511814  0.92921161    -0.04800
C1886       C  0.33037407  0.16341582  0.89521270    -0.23200
C1887       C  0.31756119  0.14694709  0.87246746     0.13200
C1888       C  0.31452851  0.12328364  0.88462772    -0.12300
N1889       N  0.35136580  0.12339299  0.97288376     0.64800
H1890       H  0.35108793  0.16706960  0.94658617     0.12700
N1891       N  0.30820030  0.15355782  0.83633028     0.61500
H1892       H  0.30485902  0.11093383  0.86661585     0.08800
O1893       O  0.38076688  0.03538111  0.93472565    -0.40000
O1894       O  0.37093005  0.03566985  0.87502191    -0.39200
O1895       O  0.26588425  0.09073456  0.91799770    -0.39200
O1896       O  0.27675524  0.09368981  0.97713064    -0.36900
O1897       O  0.31959552  0.14818467  0.80683992    -0.37800
O1898       O  0.28652159  0.15866984  0.83346536    -0.33900
O1899       O  0.37309164  0.11857222  0.96965637    -0.35300
O1900       O  0.34305293  0.12749775  0.00538509    -0.39600
C1901       C  0.32369759  0.98655361  0.62782551    -0.13300
C1902       C  0.31036129  0.99967024  0.60184425     0.17100
C1903       C  0.29128937  0.01334657  0.61499836     0.03300
C1904       C  0.28571094  0.01348344  0.65373307    -0.11800
C1905       C  0.29919656  0.00052487  0.68019369    -0.02900
C1906       C  0.31861695  0.98711497  0.66674870     0.02600
C1907       C  0.31121728  0.99233372  0.05443095     0.09400
N1908       N  0.27799438  0.02777837  0.58938612     0.65800
H1909       H  0.27103016  0.02416638  0.66347747     0.18700
N1910       N  0.33436683  0.97515873  0.69194011     0.76300
H1911       H  0.33849546  0.97610812  0.61784349     0.10200
C1912       C  0.32950973  0.00437691  0.03513607     0.03900
C1913       C  0.33006822  0.00437989  0.99547156    -0.04800
C1914       C  0.31252439  0.99271191  0.97401803    -0.23200
C1915       C  0.29432603  0.98019351  0.99350028     0.13200
C1916       C  0.29394807  0.98010580  0.03331941    -0.12300
N1917       N  0.34710228  0.01764632  0.05533623     0.64800
H1918       H  0.34444609  0.01355933  0.98130501     0.12700
N1919       N  0.27555710  0.96822219  0.97378722     0.61500
H1920       H  0.27980511  0.97074071  0.04789557     0.08800
O1921       O  0.35063065  0.98701525  0.70793823    -0.40000
O1922       O  0.33689108  0.95301212  0.68831593    -0.39200
O1923       O  0.25883994  0.01996895  0.57540875    -0.39200
O1924       O  0.27991729  0.03760342  0.07749337    -0.36900
O1925       O  0.25753082  0.97992079  0.96409652    -0.37800
O1926       O  0.27368208  0.94594779  0.97701196    -0.33900
O1927       O  0.36656494  0.00792982  0.06343044    -0.35300
O1928       O  0.35266216  0.04416264  0.56828593    -0.39600
C1929       C  0.45301709  0.23153201  0.90656015    -0.13300
C1930       C  0.45801466  0.21201072  0.92993143     0.17100
C1931       C  0.43937750  0.19739777  0.94298084     0.03300
C1932       C  0.41609325  0.20214233  0.93195345    -0.11800
C1933       C  0.41120898  0.22135178  0.90821925    -0.02900
C1934       C  0.42964024  0.23629549  0.89567888     0.02600
C1935       C  0.48271698  0.20733350  0.94098061     0.09400
N1936       N  0.44383571  0.17767425  0.96734948     0.65800
H1937       H  0.40181235  0.19066000  0.94158177     0.18700
N1938       N  0.42470860  0.25616986  0.87175213     0.76300
H1939       H  0.46727766  0.24296264  0.89674541     0.10200
C1940       C  0.49679692  0.19149150  0.92018304     0.03900
C1941       C  0.52027858  0.18767284  0.93108869    -0.04800
C1942       C  0.53018666  0.19974616  0.96212202    -0.23200
C1943       C  0.51576857  0.21496966  0.98383882     0.13200
C1944       C  0.49223006  0.21881195  0.97285996    -0.12300
N1945       N  0.48756549  0.17931696  0.88773292     0.64800
H1946       H  0.53067300  0.17498699  0.91540022     0.12700
N1947       N  0.52470654  0.22668961  0.01693935     0.61500
H1948       H  0.48131974  0.23078787  0.98923449     0.08800
O1949       O  0.41636372  0.27488012  0.88605462    -0.40000
O1950       O  0.42397293  0.25332250  0.83627045    -0.39200
O1951       O  0.43997917  0.17973694  0.00241586    -0.39200
O1952       O  0.44566796  0.15719601  0.95314172    -0.36900
O1953       O  0.52090207  0.21754554  0.04903089    -0.37800
O1954       O  0.53070415  0.24828986  0.01496469    -0.33900
O1955       O  0.49160594  0.18759489  0.85513064    -0.35300
O1956       O  0.48070961  0.15803273  0.89100300    -0.39600
C1957       C  0.49073725  0.22774199  0.66673225    -0.13300
C1958       C  0.47709854  0.24733140  0.65557015     0.17100
C1959       C  0.48856689  0.26921606  0.64890900     0.03300
C1960       C  0.51335743  0.27075036  0.65065194    -0.11800
C1961       C  0.52726190  0.25079152  0.65912271    -0.02900
C1962       C  0.51565606  0.22930735  0.66871711     0.02600
C1963       C  0.45113251  0.24441637  0.64930158     0.09400
N1964       N  0.47532634  0.28989878  0.63920553     0.65800
H1965       H  0.52191300  0.28744951  0.64344666     0.18700
N1966       N  0.52881756  0.20848867  0.67778907     0.76300
H1967       H  0.48205640  0.21088218  0.67241918     0.10200
C1968       C  0.44182607  0.24002091  0.61282379     0.03900
C1969       C  0.41735754  0.23698756  0.60767523    -0.04800
C1970       C  0.40142705  0.23818007  0.63829173    -0.23200
C1971       C  0.41089222  0.24263376  0.67501972     0.13200
C1972       C  0.43551860  0.24566129  0.68007733    -0.12300
N1973       N  0.45700858  0.23813357  0.58062019     0.64800
H1974       H  0.41087341  0.23358292  0.57921070     0.12700
N1975       N  0.39600860  0.24363762  0.70768266     0.61500
H1976       H  0.44251540  0.24889298  0.70829251     0.08800
O1977       O  0.53318105  0.19363076  0.65197761    -0.40000
O1978       O  0.53057393  0.20219502  0.71201749    -0.39200
O1979       O  0.47028120  0.30467273  0.66481121    -0.39200
O1980       O  0.47367573  0.29603395  0.60490344    -0.36900
O1981       O  0.39350735  0.22533474  0.72796927    -0.37800
O1982       O  0.39043714  0.26362414  0.72106562    -0.33900
O1983       O  0.46230723  0.21777439  0.56843809    -0.35300
O1984       O  0.45947197  0.25583235  0.55902479    -0.39600
C1985       C  0.58427328  0.21698600  0.76581676    -0.13300
C1986       C  0.56912646  0.22951182  0.79012814     0.17100
C1987       C  0.55596087  0.24856293  0.77468878     0.03300
C1988       C  0.55779764  0.25404168  0.73594147    -0.11800
C1989       C  0.57182949  0.24046953  0.71133312    -0.02900
C1990       C  0.58508108  0.22158701  0.72679991     0.02600
C1991       C  0.56795445  0.22233161  0.83110044     0.09400
N1992       N  0.53993351  0.26203788  0.79729552     0.65800
H1993       H  0.54779148  0.26884971  0.72482860     0.18700
N1994       N  0.59786468  0.20553050  0.70327506     0.76300
H1995       H  0.59529451  0.20297119  0.77700123     0.10200
C1996       C  0.56662300  0.19805053  0.84185822     0.03900
C1997       C  0.56916590  0.19159861  0.87993085    -0.04800
C1998       C  0.57176563  0.20872818  0.90827562    -0.23200
C1999       C  0.57131217  0.23286818  0.89842252     0.13200
C2000       C  0.57011818  0.23953751  0.86005127    -0.12300
N2001       N  0.56194284  0.17964649  0.81480866     0.64800
H2002       H  0.56885401  0.17296504  0.88761957     0.12700
N2003       N  0.57115811  0.25067885  0.92724342     0.61500
H2004       H  0.57143227  0.25818698  0.85303880     0.08800
O2005       O  0.58650246  0.18935035  0.68616102    -0.40000
O2006       O  0.61982518  0.20296111  0.70883935    -0.39200
O2007       O  0.54592357  0.28270264  0.80765932    -0.39200
O2008       O  0.51822826  0.25642186  0.79711495    -0.36900
O2009       O  0.55161589  0.25803430  0.93980270    -0.37800
O2010       O  0.59018185  0.25658881  0.94374467    -0.33900
O2011       O  0.57822319  0.16525852  0.80666554    -0.35300
O2012       O  0.54069251  0.17369222  0.80834692    -0.39600
C2013       C  0.70217848  0.25586851  0.62111308    -0.13300
C2014       C  0.69349279  0.24856205  0.65652424     0.17100
C2015       C  0.70967845  0.23984065  0.68366573     0.03300
C2016       C  0.73395162  0.23836327  0.67480788    -0.11800
C2017       C  0.74249489  0.24465968  0.63868795    -0.02900
C2018       C  0.72624800  0.25378638  0.61183937     0.02600
C2019       C  0.66726240  0.24686473  0.66136848     0.09400
N2020       N  0.70160641  0.23057349  0.71907104     0.65800
H2021       H  0.74596245  0.23090116  0.69561726     0.18700
N2022       N  0.73374860  0.26085824  0.57483829     0.76300
H2023       H  0.68992552  0.26234659  0.59980156     0.10200
C2024       C  0.65404952  0.26310689  0.68330425     0.03900
C2025       C  0.62901596  0.26262312  0.68178158    -0.04800
C2026       C  0.61695148  0.24662911  0.65778883    -0.23200
C2027       C  0.63029739  0.23036542  0.63624277     0.13200
C2028       C  0.65504209  0.23027248  0.63886724    -0.12300
N2029       N  0.66567311  0.28157170  0.70424847     0.64800
H2030       H  0.61907676  0.27587661  0.69721683     0.12700
N2031       N  0.61898044  0.21454054  0.60999041     0.61500
H2032       H  0.66491072  0.21797894  0.62138694     0.08800
O2033       O  0.73743459  0.28260060  0.56823652    -0.40000
O2034       O  0.73075905  0.24675933  0.54735717    -0.39200
O2035       O  0.69812642  0.20849111  0.72224581    -0.39200
O2036       O  0.70411455  0.24297156  0.74864527    -0.36900
O2037       O  0.61729547  0.22049913  0.57561578    -0.37800
O2038       O  0.61602938  0.19303488  0.61894339    -0.33900
O2039       O  0.66868601  0.30162075  0.68893031    -0.35300
O2040       O  0.66750204  0.27976180  0.73978936    -0.39600
C2041       C  0.94269759  0.24657933  0.63717795    -0.13300
C2042       C  0.95298388  0.25687168  0.60495666     0.17100
C2043       C  0.93823524  0.26859700  0.57870542     0.03300
C2044       C  0.91374092  0.27043954  0.58563890    -0.11800
C2045       C  0.90351525  0.26090085  0.61866704    -0.02900
C2046       C  0.91828329  0.24842905  0.64423925     0.02600
C2047       C  0.97909220  0.25478303  0.59972609     0.09400
N2048       N  0.94784239  0.27885819  0.54502734     0.65800
H2049       H  0.90278741  0.28009510  0.56568297     0.18700
N2050       N  0.90871260  0.23662043  0.67666703     0.76300
H2051       H  0.95374917  0.23694605  0.65701811     0.10200
C2052       C  0.99479580  0.27218305  0.61422673     0.03900
C2053       C  0.01920577  0.26784156  0.61536816    -0.04800
C2054       C  0.02865735  0.24659102  0.60145850    -0.23200
C2055       C  0.01309328  0.22930500  0.58616309     0.13200
C2056       C  0.98850691  0.23356715  0.58530014    -0.12300
N2057       N  0.98621040  0.29396641  0.62952036     0.64800
H2058       H  0.03090382  0.28100363  0.62811102     0.12700
N2059       N  0.02163371  0.20658809  0.57468164     0.61500
H2060       H  0.97659980  0.21976405  0.57507973     0.08800
O2061       O  0.91358501  0.24453280  0.70927149    -0.40000
O2062       O  0.90170679  0.21537305  0.67330495    -0.39200
O2063       O  0.94632016  0.26752506  0.51422009    -0.39200
O2064       O  0.95247449  0.30081662  0.54429788    -0.36900
O2065       O  0.02215769  0.18987524  0.59850377    -0.37800
O2066       O  0.02305159  0.20181500  0.53980351    -0.33900
O2067       O  0.98445314  0.29614122  0.66501482    -0.35300
O2068       O  0.98687169  0.31239756  0.60919845    -0.39600
C2069       C  0.69066119  0.24719860  0.90356432    -0.13300
C2070       C  0.68815151  0.22903209  0.93032041     0.17100
C2071       C  0.70829421  0.21817559  0.94597844     0.03300
C2072       C  0.73075704  0.22552332  0.93434307    -0.11800
C2073       C  0.73333714  0.24300748  0.90633253    -0.02900
C2074       C  0.71312799  0.25410049  0.89109195     0.02600
C2075       C  0.66426204  0.22080916  0.93989826     0.09400
N2076       N  0.70617083  0.19867723  0.97170640     0.65800
H2077       H  0.74619197  0.21646780  0.94549642     0.18700
N2078       N  0.71511778  0.27224231  0.86295035     0.76300
H2079       H  0.67507764  0.25555117  0.89158989     0.10200
C2080       C  0.65151096  0.23137687  0.96938916     0.03900
C2081       C  0.62849021  0.22346429  0.97713063    -0.04800
C2082       C  0.61796539  0.20510933  0.95565664    -0.23200
C2083       C  0.63085593  0.19484089  0.92559302     0.13200
C2084       C  0.65386211  0.20286232  0.91799280    -0.12300
N2085       N  0.66172363  0.25030717  0.99118153     0.64800
H2086       H  0.61865539  0.23181307  0.99980778     0.12700
N2087       N  0.62153774  0.17567779  0.90345067     0.61500
H2088       H  0.66380666  0.19486209  0.89508616     0.08800
O2089       O  0.71067618  0.26723675  0.82876029    -0.40000
O2090       O  0.71564384  0.29372760  0.87317383    -0.39200
O2091       O  0.70574535  0.17776463  0.95877810    -0.39200
O2092       O  0.71024074  0.20195322  0.00652550    -0.36900
O2093       O  0.61896084  0.17869101  0.86821544    -0.37800
O2094       O  0.61903935  0.14265929  0.41607467    -0.33900
O2095       O  0.66049860  0.27134033  0.97900970    -0.35300
O2096       O  0.67576933  0.24558611  0.01801948    -0.39600
C2097       C  0.99784448  0.29553416  0.82670076    -0.13300
C2098       C  0.98355783  0.27850863  0.80852328     0.17100
C2099       C  0.99302268  0.26479143  0.77889773     0.03300
C2100       C  0.01673619  0.26790845  0.76865052    -0.11800
C2101       C  0.03117904  0.28463816  0.78737023    -0.02900
C2102       C  0.02149613  0.29880937  0.81627488     0.02600
C2103       C  0.95868937  0.27603620  0.82055222     0.09400
N2104       N  0.97900994  0.24727604  0.75964100     0.65800
H2105       H  0.02402749  0.25690483  0.74635810     0.18700
N2106       N  0.03492538  0.31741482  0.83389130     0.76300
H2107       H  0.99040408  0.30670960  0.84863140     0.10200
C2108       C  0.95318047  0.26963809  0.85808971     0.03900
C2109       C  0.92968578  0.26977287  0.87016713    -0.04800
C2110       C  0.91133689  0.27586784  0.84521232    -0.23200
C2111       C  0.91679091  0.28218204  0.80746337     0.13200
C2112       C  0.94043719  0.28229923  0.79548123    -0.12300
N2113       N  0.97122616  0.26223561  0.88393596     0.64800
H2114       H  0.92572447  0.26455426  0.89906325     0.12700
N2115       N  0.89873827  0.28964298  0.78164317     0.61500
H2116       H  0.94462080  0.28781418  0.76681335     0.08800
O2117       O  0.03926603  0.31621199  0.86896231    -0.40000
O2118       O  0.03640104  0.33729177  0.81750891    -0.39200
O2119       O  0.97133673  0.25163535  0.72674283    -0.39200
O2120       O  0.97922177  0.22608720  0.77128485    -0.36900
O2121       O  0.89669664  0.31142120  0.77391605    -0.37800
O2122       O  0.88842729  0.27443120  0.76100335    -0.33900
O2123       O  0.97837263  0.27636443  0.90939230    -0.35300
O2124       O  0.97578734  0.24040122  0.88681381    -0.39600
C2125       C  0.79268986  0.08323947  0.71439263    -0.13300
C2126       C  0.80882892  0.09034646  0.68650628     0.17100
C2127       C  0.82614694  0.07445469  0.67356121     0.03300
C2128       C  0.82655423  0.05142741  0.68790503    -0.11800
C2129       C  0.80989588  0.04404669  0.71485867    -0.02900
C2130       C  0.79309468  0.06022236  0.72880313     0.02600
C2131       C  0.80842756  0.11513491  0.67429910     0.09400
N2132       N  0.84399331  0.08165105  0.64722377     0.65800
H2133       H  0.83993251  0.03921543  0.67789939     0.18700
N2134       N  0.77559874  0.05336611  0.75597561     0.76300
H2135       H  0.77956584  0.09562585  0.72474875     0.10200
C2136       C  0.80005590  0.12183828  0.63833900     0.03900
C2137       C  0.79903516  0.14586078  0.62907909    -0.04800
C2138       C  0.80592428  0.16351292  0.65531250    -0.23200
C2139       C  0.81353396  0.15652318  0.69194754     0.13200
C2140       C  0.81487471  0.13247235  0.70082586    -0.12300
N2141       N  0.79158898  0.10467126  0.61152023     0.64800
H2142       H  0.79279353  0.15059030  0.60101031     0.12700
N2143       N  0.81971758  0.17337366  0.72073102     0.61500
H2144       H  0.82072512  0.12724667  0.72892084     0.08800
O2145       O  0.75693909  0.04304805  0.74462292    -0.40000
O2146       O  0.77554486  0.06352643  0.78788040    -0.39200
O2147       O  0.86343076  0.08969699  0.65979683    -0.39200
O2148       O  0.84304450  0.07390649  0.61366397    -0.36900
O2149       O  0.80386755  0.18052242  0.74309793    -0.37800
O2150       O  0.84124050  0.17621321  0.72968048    -0.33900
O2151       O  0.76960314  0.10046369  0.60963889    -0.35300
O2152       O  0.80444190  0.09941512  0.58357059    -0.39600
C2153       C  0.81709005  0.08966958  0.88992496    -0.13300
C2154       C  0.80086333  0.10236141  0.91165696     0.17100
C2155       C  0.78338904  0.08968088  0.93207481     0.03300
C2156       C  0.78168522  0.06468601  0.92879803    -0.11800
C2157       C  0.79712785  0.05205410  0.90494131    -0.02900
C2158       C  0.81531379  0.06494286  0.88610805     0.02600
C2159       C  0.79980277  0.12860692  0.90622992     0.09400
N2160       N  0.76664793  0.10216242  0.95479554     0.65800
H2161       H  0.76739174  0.05536504  0.94303283     0.18700
N2162       N  0.83155429  0.05342172  0.86127010     0.76300
H2163       H  0.83041104  0.09921808  0.87375317     0.10200
C2164       C  0.81600563  0.14448076  0.92348937     0.03900
C2165       C  0.81601512  0.16873719  0.91358337    -0.04800
C2166       C  0.80036976  0.17767354  0.88586020    -0.23200
C2167       C  0.78398183  0.16149671  0.86889477     0.13200
C2168       C  0.78387699  0.13743736  0.87929074    -0.12300
N2169       N  0.83268206  0.13622648  0.95093380     0.64800
H2170       H  0.82863815  0.18055204  0.92732069     0.12700
N2171       N  0.76705946  0.16901052  0.84122185     0.61500
H2172       H  0.77152446  0.12535683  0.86544603     0.08800
O2173       O  0.82950980  0.05670724  0.82602300    -0.40000
O2174       O  0.85128921  0.04683407  0.87434815    -0.39200
O2175       O  0.74713504  0.10844457  0.94049791    -0.39200
O2176       O  0.77303367  0.11054865  0.98644866    -0.36900
O2177       O  0.74641289  0.17434231  0.85180374    -0.37800
O2178       O  0.77060803  0.16421829  0.80674851    -0.33900
O2179       O  0.85326513  0.13060584  0.94045089    -0.35300
O2180       O  0.82865166  0.13947342  0.98572175    -0.39600
C2181       C  0.79164253  0.01509782  0.59961860    -0.13300
C2182       C  0.81018873  0.00413521  0.57990909     0.17100
C2183       C  0.82787408  0.99219646  0.60100142     0.03300
C2184       C  0.82664205  0.99145223  0.64061012    -0.11800
C2185       C  0.80798470  0.00216170  0.66020414    -0.02900
C2186       C  0.79016247  0.01390752  0.63928812     0.02600
C2187       C  0.78502094  0.00486553  0.03775180     0.09400
N2188       N  0.84704791  0.98034742  0.58274176     0.65800
H2189       H  0.84039576  0.98238886  0.65637634     0.18700
N2190       N  0.76997013  0.02391105  0.65749232     0.76300
H2191       H  0.77821555  0.02480242  0.58419579     0.10200
C2192       C  0.76526344  0.99820949  0.01525315     0.03900
C2193       C  0.76663120  0.99957079  0.97570157    -0.04800
C2194       C  0.78741750  0.00725255  0.95768540    -0.23200
C2195       C  0.80722262  0.01375330  0.97994530     0.13200
C2196       C  0.80576240  0.01281619  0.01960256    -0.12300
N2197       N  0.74388751  0.98937944  0.03191655     0.64800
H2198       H  0.75136991  0.99441788  0.95875686     0.12700
N2199       N  0.82929603  0.02010181  0.96285778     0.61500
H2200       H  0.82098375  0.01833692  0.03630939     0.08800
O2201       O  0.75221460  0.01073095  0.66373727    -0.40000
O2202       O  0.76707121  0.04609936  0.65611821    -0.39200
O2203       O  0.86742874  0.98976933  0.58338888    -0.39200
O2204       O  0.84509046  0.95845794  0.57554177    -0.36900
O2205       O  0.84433901  0.00405893  0.95681927    -0.37800
O2206       O  0.83613067  0.04148863  0.96389770    -0.33900
O2207       O  0.72592726  0.00260911  0.03293398    -0.35300
O2208       O  0.76573079  0.97027808  0.52982242    -0.39600
C2209       C  0.84958140  0.42548425  0.84216070    -0.13300
C2210       C  0.82748020  0.41389673  0.84357482     0.17100
C2211       C  0.80675551  0.42786391  0.84320188     0.03300
C2212       C  0.80850634  0.45280423  0.84225992    -0.11800
C2213       C  0.83061615  0.46440176  0.84310943    -0.02900
C2214       C  0.85136593  0.45040667  0.84277132     0.02600
C2215       C  0.82685951  0.38760564  0.84983980     0.09400
N2216       N  0.78379807  0.41710773  0.84563538     0.65800
H2217       H  0.79242968  0.46321263  0.84361094     0.18700
N2218       N  0.87441615  0.46100342  0.84543516     0.76300
H2219       H  0.86567804  0.41509636  0.84324746     0.10200
C2220       C  0.83637871  0.37160781  0.82317919     0.03900
C2221       C  0.83826037  0.34736249  0.83188708    -0.04800
C2222       C  0.83140266  0.33844005  0.86741132    -0.23200
C2223       C  0.82150367  0.35439786  0.89402953     0.13200
C2224       C  0.81918313  0.37862883  0.88492658    -0.12300
N2225       N  0.84448868  0.37971760  0.78712423     0.64800
H2226       H  0.84605287  0.33558561  0.81110551     0.12700
N2227       N  0.81353754  0.34635945  0.93029137     0.61500
H2228       H  0.81211351  0.39066820  0.90597915     0.08800
O2229       O  0.88811228  0.45977987  0.81727228    -0.40000
O2230       O  0.88319071  0.46488243  0.87783569    -0.39200
O2231       O  0.77298797  0.41739147  0.87691055    -0.39200
O2232       O  0.77223973  0.41316625  0.81556144    -0.36900
O2233       O  0.82651163  0.34970364  0.95906002    -0.37800
O2234       O  0.79187611  0.34137506  0.93481388    -0.33900
O2235       O  0.86643302  0.38273054  0.78188123    -0.35300
O2236       O  0.83086299  0.37786721  0.75882244    -0.39600
C2237       C  0.86454910  0.42522259  0.56304960    -0.13300
C2238       C  0.84460765  0.41208114  0.55151422     0.17100
C2239       C  0.82651011  0.42314817  0.53055777     0.03300
C2240       C  0.82862066  0.44724000  0.52170077    -0.11800
C2241       C  0.84834117  0.46049449  0.53398829    -0.02900
C2242       C  0.86655951  0.44934018  0.55442987     0.02600
C2243       C  0.84205659  0.38773606  0.56578753     0.09400
N2244       N  0.80551431  0.41051533  0.51955344     0.65800
H2245       H  0.81456220  0.45579890  0.50585489     0.18700
N2246       N  0.88740726  0.46203817  0.56579750     0.76300
H2247       H  0.87845145  0.41673822  0.57934081     0.10200
C2248       C  0.84746723  0.36782469  0.54341852     0.03900
C2249       C  0.84651818  0.34517649  0.55952458    -0.04800
C2250       C  0.84111269  0.34210551  0.59809880    -0.23200
C2251       C  0.83629893  0.36226408  0.62059729     0.13200
C2252       C  0.83645395  0.38477990  0.60409996    -0.12300
N2253       N  0.85544377  0.37038538  0.50522191     0.64800
H2254       H  0.85072508  0.32995312  0.54200042     0.12700
N2255       N  0.83135653  0.36033394  0.66016635     0.61500
H2256       H  0.83280258  0.40018720  0.62156682     0.08800
O2257       O  0.90524917  0.46199717  0.54429431    -0.40000
O2258       O  0.89006413  0.46757740  0.60023112    -0.39200
O2259       O  0.78729071  0.41189560  0.54008981    -0.39200
O2260       O  0.80335496  0.40345564  0.48573934    -0.36900
O2261       O  0.81019044  0.36180581  0.67138230    -0.37800
O2262       O  0.84803097  0.36351907  0.68361995    -0.33900
O2263       O  0.87743996  0.37092346  0.49877143    -0.35300
O2264       O  0.84132305  0.36583361  0.47833124    -0.39600
C2265       C  0.81233651  0.51379072  0.72529525    -0.13300
C2266       C  0.83305893  0.50392902  0.71000845     0.17100
C2267       C  0.85136613  0.49712228  0.73499746     0.03300
C2268       C  0.84839327  0.49947571  0.77412384    -0.11800
C2269       C  0.82754166  0.50861921  0.78974231    -0.02900
C2270       C  0.80953936  0.51651539  0.76479111     0.02600
C2271       C  0.83651860  0.50324084  0.66812470     0.09400
N2272       N  0.87325225  0.48790752  0.72117272     0.65800
H2273       H  0.86274284  0.49442515  0.79272149     0.18700
N2274       N  0.78864935  0.52775511  0.77859556     0.76300
H2275       H  0.79851707  0.52000981  0.70640837     0.10200
C2276       C  0.82216687  0.48929655  0.64372505     0.03900
C2277       C  0.82634832  0.48941943  0.60447446    -0.04800
C2278       C  0.84455486  0.50336143  0.58869125    -0.23200
C2279       C  0.85905951  0.51707862  0.61324251     0.13200
C2280       C  0.85472269  0.51708800  0.65233713    -0.12300
N2281       N  0.80331367  0.47488710  0.65817619     0.64800
H2282       H  0.81484674  0.47908303  0.58604595     0.12700
N2283       N  0.87898521  0.53024879  0.59943805     0.61500
H2284       H  0.86582615  0.52796943  0.67062474     0.08800
O2285       O  0.77006642  0.51544906  0.78285233    -0.40000
O2286       O  0.78677942  0.54997577  0.77499512    -0.39200
O2287       O  0.89108962  0.50152315  0.71922059    -0.39200
O2288       O  0.87630871  0.46572532  0.72085097    -0.36900
O2289       O  0.89835225  0.51956987  0.59475867    -0.37800
O2290       O  0.87938093  0.55250757  0.60374561    -0.33900
O2291       O  0.78231447  0.48236892  0.65591050    -0.35300
O2292       O  0.80676631  0.45297853  0.66309258    -0.39600
C2293       C  0.84442773  0.63021035  0.59740113    -0.13300
C2294       C  0.82985243  0.62036188  0.56928002     0.17100
C2295       C  0.81035965  0.63327121  0.55550474     0.03300
C2296       C  0.80625982  0.65609974  0.56908145    -0.11800
C2297       C  0.82092759  0.66627037  0.59707899    -0.02900
C2298       C  0.84000885  0.65283488  0.61182611     0.02600
C2299       C  0.83397685  0.59575396  0.55738883     0.09400
N2300       N  0.79440462  0.62340071  0.52801847     0.65800
H2301       H  0.79121954  0.66574300  0.55788472     0.18700
N2302       N  0.85481871  0.66150027  0.64183536     0.76300
H2303       H  0.85891002  0.61995064  0.60908975     0.10200
C2304       C  0.85504901  0.58901491  0.53908820     0.03900
C2305       C  0.85820866  0.56534760  0.52872963    -0.04800
C2306       C  0.84114808  0.54810045  0.53783009    -0.23200
C2307       C  0.82022023  0.55478492  0.55668441     0.13200
C2308       C  0.81688426  0.57854114  0.56636421    -0.12300
N2309       N  0.87353563  0.60582279  0.53145834     0.64800
H2310       H  0.87433817  0.56027393  0.51425888     0.12700
N2311       N  0.80167977  0.53810509  0.56460771     0.61500
H2312       H  0.80083859  0.58359279  0.58106240     0.08800
O2313       O  0.85025211  0.65548474  0.67551969    -0.40000
O2314       O  0.87507666  0.66980581  0.63410370    -0.39200
O2315       O  0.77489621  0.61471374  0.53895870    -0.39200
O2316       O  0.79684244  0.62896047  0.49359321    -0.36900
O2317       O  0.78628244  0.53399992  0.53934885    -0.37800
O2318       O  0.79663861  0.53370299  0.59873869    -0.33900
O2319       O  0.89142668  0.60654338  0.55304645    -0.35300
O2320       O  0.87483749  0.61514961  0.49900553    -0.39600
C2321       C  0.77527271  0.87520606  0.68309447    -0.13300
C2322       C  0.78744516  0.89027011  0.65838091     0.17100
C2323       C  0.79422987  0.88230424  0.62232633     0.03300
C2324       C  0.78932654  0.85890728  0.61192388    -0.11800
C2325       C  0.77833203  0.84329170  0.63751857    -0.02900
C2326       C  0.77083685  0.85168259  0.67315518     0.02600
C2327       C  0.79418032  0.91366554  0.67236821     0.09400
N2328       N  0.80762897  0.89711887  0.59730163     0.65800
H2329       H  0.79540749  0.85255107  0.58462188     0.18700
N2330       N  0.75826994  0.83690182  0.69923486     0.76300
H2331       H  0.76988922  0.88157298  0.71077863     0.10200
C2332       C  0.77981673  0.93334442  0.66520801     0.03900
C2333       C  0.78504981  0.95477081  0.68278353    -0.04800
C2334       C  0.80471001  0.95708607  0.70691493    -0.23200
C2335       C  0.81889730  0.93716438  0.71480159     0.13200
C2336       C  0.81351252  0.91554691  0.69726174    -0.12300
N2337       N  0.75935779  0.93163488  0.64135846     0.64800
H2338       H  0.77345923  0.96968276  0.67776586     0.12700
N2339       N  0.83865729  0.93846887  0.74022284     0.61500
H2340       H  0.82414629  0.90005870  0.70355519     0.08800
O2341       O  0.73702273  0.84193413  0.70671952    -0.40000
O2342       O  0.76986358  0.82444766  0.72244272    -0.39200
O2343       O  0.82981075  0.89456044  0.59549560    -0.39200
O2344       O  0.79708311  0.90819455  0.57121114    -0.36900
O2345       O  0.85934093  0.93954003  0.72675244    -0.37800
O2346       O  0.83592577  0.93186329  0.77413452    -0.33900
O2347       O  0.73921085  0.92917842  0.65637655    -0.35300
O2348       O  0.76071554  0.93877710  0.60752870    -0.39600
C2349       C  0.83616793  0.64093521  0.85483989    -0.13300
C2350       C  0.81543745  0.63026152  0.84045681     0.17100
C2351       C  0.79527904  0.64473894  0.83496681     0.03300
C2352       C  0.79628467  0.66918882  0.84361100    -0.11800
C2353       C  0.81683339  0.67971613  0.85907506    -0.02900
C2354       C  0.83701332  0.66520149  0.86439788     0.02600
C2355       C  0.81447234  0.60366848  0.83720177     0.09400
N2356       N  0.77350950  0.63490916  0.82102217     0.65800
H2357       H  0.78060879  0.67987732  0.83919633     0.18700
N2358       N  0.85870567  0.67477328  0.87910254     0.76300
H2359       H  0.85165532  0.63012410  0.86012848     0.10200
C2360       C  0.83042813  0.59057737  0.81443876     0.03900
C2361       C  0.83210448  0.56568320  0.81838071    -0.04800
C2362       C  0.81795023  0.55331090  0.84455244    -0.23200
C2363       C  0.80112763  0.56635256  0.86577314     0.13200
C2364       C  0.79958833  0.59110012  0.86191463    -0.12300
N2365       N  0.84518413  0.60227925  0.78732790     0.64800
H2366       H  0.84522207  0.55618134  0.80203778     0.12700
N2367       N  0.78581286  0.55483489  0.89238032     0.61500
H2368       H  0.78744516  0.60070625  0.87996716     0.08800
O2369       O  0.87487660  0.68079647  0.85632217    -0.40000
O2370       O  0.86389298  0.67133145  0.91349169    -0.39200
O2371       O  0.75667130  0.63131697  0.84384739    -0.39200
O2372       O  0.76912723  0.63585100  0.78595003    -0.36900
O2373       O  0.76551755  0.54802192  0.88159379    -0.37800
O2374       O  0.78983448  0.55722835  0.92741602    -0.33900
O2375       O  0.86690477  0.60536369  0.79467820    -0.35300
O2376       O  0.83815002  0.60374897  0.75340827    -0.39600
C2377       C  0.79341581  0.87919010  0.87236664    -0.13300
C2378       C  0.78217475  0.88711742  0.90542789     0.17100
C2379       C  0.77125439  0.87019133  0.92927578     0.03300
C2380       C  0.77165729  0.84593911  0.91964487    -0.11800
C2381       C  0.78208385  0.83801287  0.88574459    -0.02900
C2382       C  0.79325002  0.85505014  0.86210160     0.02600
C2383       C  0.77968724  0.91325661  0.91115628     0.09400
N2384       N  0.75872689  0.87733920  0.96244895     0.65800
H2385       H  0.76264091  0.83335631  0.93796421     0.18700
N2386       N  0.80439450  0.84832115  0.82742674     0.76300
H2387       H  0.80162549  0.89202573  0.85352565     0.10200
C2388       C  0.79799133  0.92732126  0.92714009     0.03900
C2389       C  0.79723634  0.95226818  0.92434966    -0.04800
C2390       C  0.77879119  0.96362827  0.90478042    -0.23200
C2391       C  0.75985062  0.94950708  0.89049832     0.13200
C2392       C  0.76036494  0.92466585  0.89421126    -0.12300
N2393       N  0.81834190  0.91651607  0.94375492     0.64800
H2394       H  0.81208567  0.96265993  0.93498391     0.12700
N2395       N  0.74033626  0.95993920  0.87079573     0.61500
H2396       H  0.74624097  0.91410749  0.88159928     0.08800
O2397       O  0.79307186  0.85041741  0.79669303    -0.40000
O2398       O  0.82669593  0.84673540  0.82647436    -0.39200
O2399       O  0.73637045  0.87810861  0.96142060    -0.39200
O2400       O  0.76909181  0.87647795  0.99417444    -0.36900
O2401       O  0.72119097  0.96322162  0.88839788    -0.37800
O2402       O  0.73994153  0.95930244  0.83502252    -0.33900
O2403       O  0.83688450  0.91424868  0.92418871    -0.35300
O2404       O  0.81961633  0.91459633  0.97934539    -0.39600
C2405       C  0.63816096  0.74334356  0.97123774    -0.13300
C2406       C  0.63823663  0.76660364  0.95689102     0.17100
C2407       C  0.61654587  0.77842154  0.95183623     0.03300
C2408       C  0.59531411  0.76667478  0.96012560    -0.11800
C2409       C  0.59515421  0.74321589  0.97337689    -0.02900
C2410       C  0.61687856  0.73159056  0.97954658     0.02600
C2411       C  0.66060856  0.77587442  0.94084894     0.09400
N2412       N  0.61573116  0.80236830  0.93856138     0.65800
H2413       H  0.57889068  0.77613901  0.95651448     0.18700
N2414       N  0.61763086  0.70733570  0.99140206     0.76300
H2415       H  0.65467664  0.73375723  0.97405471     0.10200
C2416       C  0.68146450  0.77717389  0.96284825     0.03900
C2417       C  0.70346842  0.77802295  0.94495793    -0.04800
C2418       C  0.70520927  0.77776661  0.90526610    -0.23200
C2419       C  0.68424433  0.77901008  0.88328906     0.13200
C2420       C  0.66217844  0.77795012  0.90129678    -0.12300
N2421       N  0.68069886  0.77654642  0.00332535     0.64800
H2422       H  0.71936225  0.77803915  0.96235370     0.12700
N2423       N  0.68485634  0.77904660  0.84278297     0.61500
H2424       H  0.64627622  0.77667571  0.88403513     0.08800
O2425       O  0.62288565  0.70257778  0.02534951    -0.40000
O2426       O  0.61919087  0.69125288  0.96660241    -0.39200
O2427       O  0.60909126  0.80632538  0.90496292    -0.39200
O2428       O  0.61509222  0.81902334  0.96250374    -0.36900
O2429       O  0.68276404  0.75960656  0.82518966    -0.37800
O2430       O  0.68113852  0.79822168  0.82529974    -0.33900
O2431       O  0.68814682  0.75835274  0.02036966    -0.35300
O2432       O  0.67925595  0.79587555  0.02129386    -0.39600
C2433       C  0.62810950  0.78341824  0.65013882    -0.13300
C2434       C  0.63866181  0.76158528  0.65839191     0.17100
C2435       C  0.62443195  0.74270516  0.67176063     0.03300
C2436       C  0.59978754  0.74558981  0.67489688    -0.11800
C2437       C  0.58902074  0.76696040  0.66416815    -0.02900
C2438       C  0.60351864  0.78621111  0.65252888     0.02600
C2439       C  0.66440464  0.75902643  0.65122181     0.09400
N2440       N  0.63451390  0.72008685  0.67992943     0.65800
H2441       H  0.58886944  0.73048659  0.68288365     0.18700
N2442       N  0.59348407  0.80846721  0.64168434     0.76300
H2443       H  0.63896591  0.79812641  0.64027082     0.10200
C2444       C  0.67282001  0.75332847  0.61482311     0.03900
C2445       C  0.69705026  0.75531903  0.60664702    -0.04800
C2446       C  0.71345902  0.76265333  0.63441886    -0.23200
C2447       C  0.70503373  0.76718966  0.67161399     0.13200
C2448       C  0.68066652  0.76556103  0.67946000    -0.12300
N2449       N  0.65681030  0.74638451  0.58535944     0.64800
H2450       H  0.70298088  0.75151951  0.57809160     0.12700
N2451       N  0.72054709  0.77515535  0.70115069     0.61500
H2452       H  0.67431288  0.77028051  0.70743446     0.08800
O2453       O  0.59136602  0.81329668  0.60692010    -0.40000
O2454       O  0.59307500  0.82519448  0.66550771    -0.39200
O2455       O  0.63751470  0.71397219  0.71400849    -0.39200
O2456       O  0.63524389  0.70453021  0.65418476    -0.36900
O2457       O  0.72021169  0.79675157  0.71057565    -0.37800
O2458       O  0.72867428  0.76016935  0.72428753    -0.33900
O2459       O  0.64956447  0.76180345  0.56222722    -0.35300
O2460       O  0.65445603  0.72464477  0.57733502    -0.39600
C2461       C  0.55775924  0.76675316  0.78455274    -0.13300
C2462       C  0.54755402  0.74590691  0.79934028     0.17100
C2463       C  0.53673803  0.72972773  0.77376718     0.03300
C2464       C  0.53665091  0.73446791  0.73461210    -0.11800
C2465       C  0.54657779  0.75543385  0.71983645    -0.02900
C2466       C  0.55723164  0.77174063  0.74545171     0.02600
C2467       C  0.54791825  0.74210141  0.84147057     0.09400
N2468       N  0.52437294  0.70914248  0.78700486     0.65800
H2469       H  0.52836355  0.72177064  0.71555462     0.18700
N2470       N  0.56652117  0.79401994  0.73278132     0.76300
H2471       H  0.56585066  0.77954915  0.80370091     0.10200
C2472       C  0.56086174  0.72353129  0.85848705     0.03900
C2473       C  0.56214426  0.72171262  0.89811646    -0.04800
C2474       C  0.55069288  0.73791943  0.92191058    -0.23200
C2475       C  0.53763527  0.75667143  0.90524504     0.13200
C2476       C  0.53643171  0.75845854  0.86528698    -0.12300
N2477       N  0.57357871  0.70675252  0.83617332     0.64800
H2478       H  0.57214463  0.70732796  0.91064130     0.12700
N2479       N  0.52607659  0.77431494  0.92801651     0.61500
H2480       H  0.52679836  0.77302909  0.85257129     0.08800
O2481       O  0.58837380  0.79832848  0.73695564    -0.40000
O2482       O  0.55249081  0.81112827  0.72798073    -0.39200
O2483       O  0.50282599  0.71108064  0.79595684    -0.39200
O2484       O  0.53221429  0.68888927  0.77853763    -0.36900
O2485       O  0.53536300  0.78158506  0.95853966    -0.37800
O2486       O  0.50725240  0.78392610  0.91635521    -0.33900
O2487       O  0.59477281  0.71139275  0.82732810    -0.35300
O2488       O  0.56658969  0.68540507  0.83570222    -0.39600
C2489       C  0.40974793  0.75431932  0.69987107    -0.13300
C2490       C  0.42445993  0.75299936  0.66771933     0.17100
C2491       C  0.41364298  0.75372309  0.63141449     0.03300
C2492       C  0.38910265  0.75648007  0.62798596    -0.11800
C2493       C  0.37452905  0.75904045  0.65991133    -0.02900
C2494       C  0.38504891  0.75743950  0.69627867     0.02600
C2495       C  0.45089544  0.75099844  0.67179920     0.09400
N2496       N  0.42739199  0.75329075  0.59741639     0.65800
H2497       H  0.38152020  0.75747578  0.59974264     0.18700
N2498       N  0.37115834  0.76029022  0.72977315     0.76300
H2499       H  0.41747439  0.75324868  0.72796088     0.10200
C2500       C  0.46463382  0.76719121  0.69367827     0.03900
C2501       C  0.48953434  0.76701404  0.69142246    -0.04800
C2502       C  0.50120348  0.75109060  0.66749019    -0.23200
C2503       C  0.48763894  0.73354344  0.64835457     0.13200
C2504       C  0.46284821  0.73344150  0.65116640    -0.12300
N2505       N  0.45371817  0.78515280  0.71608357     0.64800
H2506       H  0.49965721  0.78066122  0.70610932     0.12700
N2507       N  0.49868982  0.71605144  0.62503602     0.61500
H2508       H  0.45281823  0.72002925  0.63583474     0.08800
O2509       O  0.36585357  0.78086577  0.74100777    -0.40000
O2510       O  0.36152485  0.74239148  0.74498282    -0.39200
O2511       O  0.42717692  0.73478770  0.57716658    -0.39200
O2512       O  0.43394211  0.77271781  0.58285241    -0.36900
O2513       O  0.49752455  0.71803961  0.58943271    -0.37800
O2514       O  0.50358304  0.69609977  0.63922401    -0.33900
O2515       O  0.45329142  0.78276360  0.75165404    -0.35300
O2516       O  0.45066511  0.80549035  0.70194685    -0.39600
C2517       C  0.32195829  0.88437956  0.68553140    -0.13300
C2518       C  0.31113390  0.88768575  0.72079974     0.17100
C2519       C  0.30413896  0.86778794  0.74215945     0.03300
C2520       C  0.30634960  0.84506519  0.72663739    -0.11800
C2521       C  0.31532147  0.84167922  0.68977870    -0.02900
C2522       C  0.32427662  0.86167481  0.66991461     0.02600
C2523       C  0.30390120  0.91192358  0.73113372     0.09400
N2524       N  0.29313171  0.87035967  0.77835147     0.65800
H2525       H  0.29975987  0.83013364  0.74297793     0.18700
N2526       N  0.33536108  0.85950512  0.63370127     0.76300
H2527       H  0.32766244  0.89969172  0.66919361     0.10200
C2528       C  0.31608124  0.92553504  0.75854571     0.03900
C2529       C  0.31021886  0.94943111  0.76341037    -0.04800
C2530       C  0.29259289  0.96006185  0.74107492    -0.23200
C2531       C  0.27986775  0.94623240  0.71464370     0.13200
C2532       C  0.28561311  0.92230995  0.70991027    -0.12300
N2533       N  0.33560059  0.91603556  0.77938006     0.64800
H2534       H  0.32035895  0.96008993  0.78331871     0.12700
N2535       N  0.26094946  0.95604268  0.69279907     0.61500
H2536       H  0.27609452  0.91184998  0.68890133     0.08800
O2537       O  0.32350491  0.86391773  0.60415079    -0.40000
O2538       O  0.35771186  0.85955212  0.63193220    -0.39200
O2539       O  0.27080218  0.86967763  0.78041445    -0.39200
O2540       O  0.30523495  0.86671352  0.80791101    -0.36900
O2541       O  0.24004636  0.95447912  0.70525809    -0.37800
O2542       O  0.26413374  0.96017461  0.65801803    -0.33900
O2543       O  0.35639906  0.92000337  0.76776728    -0.35300
O2544       O  0.33255231  0.90986596  0.81341671    -0.39600
C2545       C  0.41856887  0.73508448  0.97431478    -0.13300
C2546       C  0.43620057  0.73722020  0.94659933     0.17100
C2547       C  0.43017283  0.74457850  0.90990183     0.03300
C2548       C  0.40661589  0.74915837  0.90097699    -0.11800
C2549       C  0.38856634  0.74662348  0.92817560    -0.02900
C2550       C  0.39483531  0.73988050  0.96562003     0.02600
C2551       C  0.46114009  0.73393146  0.95725445     0.09400
N2552       N  0.44791567  0.74824152  0.88165477     0.65800
H2553       H  0.40257200  0.75478296  0.87231476     0.18700
N2554       N  0.37762484  0.73801081  0.99519534     0.76300
H2555       H  0.42334248  0.72998562  0.00296709     0.10200
C2556       C  0.47287653  0.75141633  0.97882527     0.03900
C2557       C  0.49645889  0.74813895  0.98938418    -0.04800
C2558       C  0.50891484  0.72826244  0.97662333    -0.23200
C2559       C  0.49725149  0.71068089  0.95510620     0.13200
C2560       C  0.47333067  0.71358684  0.94550237    -0.12300
N2561       N  0.46139559  0.77321192  0.98799746     0.64800
H2562       H  0.50538125  0.76162362  0.00624671     0.12700
N2563       N  0.50939962  0.68967518  0.94371407     0.61500
H2564       H  0.46425025  0.70003821  0.92898835     0.08800
O2565       O  0.37464150  0.75538488  0.01727987    -0.40000
O2566       O  0.36986293  0.71778313  0.00461912    -0.39200
O2567       O  0.45153274  0.73222131  0.85735682    -0.39200
O2568       O  0.45558700  0.76900678  0.87560699    -0.36900
O2569       O  0.51488990  0.67424372  0.96809674    -0.37800
O2570       O  0.51670630  0.68764095  0.91010607    -0.33900
O2571       O  0.45019200  0.77502811  0.01868778    -0.35300
O2572       O  0.45914694  0.78904674  0.96296066    -0.39600
C2573       C  0.33490519  0.86393175  0.90070744    -0.13300
C2574       C  0.31785229  0.87303297  0.92541006     0.17100
C2575       C  0.30219021  0.85706683  0.94357727     0.03300
C2576       C  0.30374712  0.83250573  0.93665442    -0.11800
C2577       C  0.32041395  0.82328948  0.91103199    -0.02900
C2578       C  0.33627871  0.83949530  0.89316256     0.02600
C2579       C  0.31456567  0.89925600  0.92678021     0.09400
N2580       N  0.28434629  0.86551362  0.96873968     0.65800
H2581       H  0.29138783  0.82065802  0.95076931     0.18700
N2582       N  0.35391801  0.83164516  0.86708018     0.76300
H2583       H  0.34675231  0.87603606  0.88599473     0.10200
C2584       C  0.33065139  0.91466603  0.94557354     0.03900
C2585       C  0.32863497  0.93943604  0.94135209    -0.04800
C2586       C  0.31129385  0.94924422  0.91751600    -0.23200
C2587       C  0.29528278  0.93372639  0.89866723     0.13200
C2588       C  0.29679024  0.90910561  0.90400329    -0.12300
N2589       N  0.34983677  0.90546608  0.96747710     0.64800
H2590       H  0.34152670  0.95097502  0.95506940     0.12700
N2591       N  0.27756968  0.94262135  0.87344571     0.61500
H2592       H  0.28467219  0.89749318  0.88870354     0.08800
O2593       O  0.37498342  0.82918229  0.87852423    -0.40000
O2594       O  0.34990479  0.83315100  0.83193379    -0.39200
O2595       O  0.26317041  0.86668201  0.95724816    -0.39200
O2596       O  0.28855230  0.86601420  0.00389710    -0.36900
O2597       O  0.28057571  0.94062108  0.83815249    -0.37800
O2598       O  0.25697219  0.94627798  0.88591378    -0.33900
O2599       O  0.37016293  0.90426317  0.95275662    -0.35300
O2600       O  0.34789003  0.90437757  0.00306444    -0.39600
C2601       C  0.12539749  0.73419860  0.60546450    -0.13300
C2602       C  0.13777117  0.75561071  0.61163965     0.17100
C2603       C  0.12484241  0.77693526  0.61337164     0.03300
C2604       C  0.09994405  0.77629449  0.61206108    -0.18200
C2605       C  0.08746390  0.75469425  0.60862676    -0.02900
C2606       C  0.10045385  0.73358271  0.60389192     0.02600
C2607       C  0.16368183  0.75487507  0.62029707     0.09400
N2608       N  0.13667122  0.79930110  0.61781411     0.65800
H2609       H  0.09023576  0.79269174  0.61562479     0.18700
N2610       N  0.08864382  0.71113129  0.60111596     0.76300
H2611       H  0.13510376  0.71767625  0.60402600     0.10200
C2612       C  0.17177937  0.75455723  0.65810945     0.03900
C2613       C  0.19595829  0.75166906  0.66615356    -0.04800
C2614       C  0.21282240  0.74871850  0.63717581    -0.23200
C2615       C  0.20465660  0.74968890  0.59894968     0.13200
C2616       C  0.18030648  0.75268440  0.59102710    -0.12300
N2617       N  0.15543545  0.75581778  0.68889499     0.64800
H2618       H  0.20139138  0.75103742  0.69562591     0.12700
N2619       N  0.22048132  0.74679793  0.56772797     0.61500
H2620       H  0.17427722  0.75273709  0.56180852     0.08800
O2621       O  0.08515496  0.69913072  0.63081287    -0.40000
O2622       O  0.08699241  0.70108867  0.56920615    -0.39200
O2623       O  0.13985597  0.81227466  0.58908783    -0.39200
O2624       O  0.13852637  0.80835318  0.65043385    -0.36900
O2625       O  0.22291569  0.72645233  0.55324792    -0.37800
O2626       O  0.22679463  0.76485019  0.54899852    -0.33900
O2627       O  0.14689438  0.73684602  0.70235581    -0.35300
O2628       O  0.15394202  0.77479507  0.70777018    -0.39600
C2629       C  0.91259073  0.76602572  0.61705283    -0.13300
C2630       C  0.92230975  0.75086098  0.58963983     0.17100
C2631       C  0.90693028  0.73592951  0.56866118     0.03300
C2632       C  0.88251170  0.73570785  0.57651873    -0.11800
C2633       C  0.87304427  0.74963249  0.60586672    -0.02900
C2634       C  0.88829021  0.76541577  0.62552332     0.02600
C2635       C  0.94847097  0.74753595  0.59005088     0.09400
N2636       N  0.91594758  0.71956647  0.54140756     0.65800
H2637       H  0.87115815  0.72330383  0.56130747     0.18700
N2638       N  0.87951591  0.78067838  0.65457465     0.76300
H2639       H  0.92422511  0.77743239  0.63364391     0.10200
C2640       C  0.96416136  0.75969639  0.56552382     0.03900
C2641       C  0.98882823  0.75930948  0.57262152    -0.04800
C2642       C  0.99807740  0.74690669  0.60393590    -0.23200
C2643       C  0.98228642  0.73373861  0.62694413     0.13200
C2644       C  0.95789696  0.73413838  0.61981343    -0.12300
N2645       N  0.95531440  0.77327798  0.53442011     0.64800
H2646       H  0.00059551  0.76970338  0.55482987     0.12700
N2647       N  0.99072600  0.72003838  0.65821291     0.61500
H2648       H  0.94606067  0.72462163  0.63874088     0.08800
O2649       O  0.88128484  0.77440797  0.68881058    -0.40000
O2650       O  0.87558227  0.80218697  0.64689083    -0.39200
O2651       O  0.91888842  0.69817698  0.55091937    -0.39200
O2652       O  0.91475539  0.72475174  0.50665424    -0.36900
O2653       O  0.98688643  0.72716906  0.69154744    -0.37800
O2654       O  0.99620604  0.69860962  0.65284494    -0.33900
O2655       O  0.95226517  0.79532364  0.53840178    -0.35300
O2656       O  0.95571483  0.76450348  0.50149048    -0.39600
C2657       C  0.12487437  0.74786659  0.84475192    -0.13300
C2658       C  0.13682403  0.72672108  0.83648894     0.17100
C2659       C  0.12517206  0.70852081  0.81623796     0.03300
C2660       C  0.10204012  0.71205166  0.80358308    -0.11800
C2661       C  0.09018111  0.73325534  0.81149918    -0.02900
C2662       C  0.10159810  0.75126551  0.83249263     0.02600
C2663       C  0.16122038  0.72417091  0.85034766     0.09400
N2664       N  0.13608126  0.68604766  0.80981807     0.65800
H2665       H  0.09312218  0.69802426  0.78784265     0.18700
N2666       N  0.09029766  0.77339027  0.84011473     0.76300
H2667       H  0.13381507  0.76190857  0.86042116     0.10200
C2668       C  0.18071703  0.72448728  0.82550996     0.03900
C2669       C  0.20361455  0.72556401  0.84028862    -0.04800
C2670       C  0.20753445  0.72671633  0.87950802    -0.23200
C2671       C  0.18796300  0.72568481  0.90443733     0.13200
C2672       C  0.16503715  0.72434141  0.88957478    -0.12300
N2673       N  0.17771178  0.72580839  0.78535569     0.64800
H2674       H  0.21842409  0.72613421  0.82076696     0.12700
N2675       N  0.19081020  0.72760010  0.94462148     0.61500
H2676       H  0.15003787  0.72442094  0.90874821     0.08800
O2677       O  0.08350283  0.77784880  0.87340890    -0.40000
O2678       O  0.09285386  0.79029527  0.81697582    -0.39200
O2679       O  0.13454685  0.67027153  0.83510965    -0.39200
O2680       O  0.14102884  0.67994291  0.77634733    -0.36900
O2681       O  0.18923036  0.74775549  0.96007967    -0.37800
O2682       O  0.18862393  0.70920555  0.96477969    -0.33900
O2683       O  0.17850002  0.74597719  0.76982652    -0.35300
O2684       O  0.18217868  0.70769659  0.76559822    -0.39600
C2685       C  0.92490661  0.76301986  0.84334141    -0.13300
C2686       C  0.92924891  0.74728492  0.81347279     0.17100
C2687       C  0.91047385  0.73435434  0.79699448     0.03300
C2688       C  0.88759443  0.73702368  0.81114635    -0.11800
C2689       C  0.88330609  0.75201242  0.84215514    -0.02900
C2690       C  0.90211158  0.76536206  0.85805119     0.02600
C2691       C  0.95391157  0.74290567  0.80315569     0.09400
N2692       N  0.91450270  0.71782891  0.76697597     0.65800
H2693       H  0.87328663  0.72653273  0.79890923     0.18700
N2694       N  0.89837472  0.78146588  0.88875478     0.76300
H2695       H  0.93945550  0.77292180  0.85608981     0.10200
C2696       C  0.96636518  0.75866848  0.77953988     0.03900
C2697       C  0.99072326  0.75603716  0.77511578    -0.04800
C2698       C  0.00292534  0.73811891  0.79449077    -0.23200
C2699       C  0.99028798  0.72172143  0.81699041     0.13200
C2700       C  0.96583457  0.72434755  0.82129162    -0.12300
N2701       N  0.95466449  0.77782421  0.76087992     0.64800
H2702       H  0.00029992  0.76844459  0.75719709     0.12700
N2703       N  0.00168481  0.70186207  0.83423639     0.61500
H2704       H  0.95614546  0.71213632  0.83938709     0.08800
O2705       O  0.90287318  0.77482603  0.92216562    -0.40000
O2706       O  0.89659806  0.80337490  0.88183929    -0.39200
O2707       O  0.91603563  0.69598861  0.77458103    -0.39200
O2708       O  0.91087240  0.72417390  0.73315362    -0.36900
O2709       O  0.00414005  0.70144333  0.86980794    -0.37800
O2710       O  0.00292332  0.68263364  0.81594906    -0.33900
O2711       O  0.95672544  0.79857145  0.77413035    -0.35300
O2712       O  0.94732932  0.77500999  0.72731936    -0.39600
C2713       C  0.03444220  0.71719311  0.50084284    -0.13300
C2714       C  0.04615623  0.73309270  0.47663963     0.17100
C2715       C  0.05751876  0.75329645  0.49206439     0.03300
C2716       C  0.05656917  0.75752604  0.53111263    -0.11800
C2717       C  0.04464290  0.74178979  0.55543027    -0.02900
C2718       C  0.03373631  0.72124909  0.54003631     0.02600
C2719       C  0.04329247  0.74362144  0.93626716     0.09400
N2720       N  0.07036390  0.76948518  0.46846886     0.65800
H2721       H  0.06489235  0.77340965  0.54251095     0.18700
N2722       N  0.02260325  0.70393529  0.56378009     0.76300
H2723       H  0.02572162  0.70157934  0.48919638     0.10200
C2724       C  0.05560369  0.72492248  0.91887020     0.03900
C2725       C  0.05551673  0.72275964  0.87922166    -0.04800
C2726       C  0.04358994  0.73928162  0.85615453    -0.23200
C2727       C  0.03084647  0.75777720  0.87401375     0.13200
C2728       C  0.03073302  0.75963883  0.91369357    -0.12300
N2729       N  0.06902788  0.70860610  0.94119378     0.64800
H2730       H  0.06513778  0.70830669  0.86627968     0.12700
N2731       N  0.01919936  0.77579644  0.85263667     0.61500
H2732       H  0.02115505  0.77403103  0.92698261     0.08800
O2733       O  0.00059710  0.70020018  0.56045742    -0.40000
O2734       O  0.03525556  0.68842078  0.57963570    -0.39200
O2735       O  0.06025279  0.78787510  0.45617819    -0.39200
O2736       O  0.09104477  0.77931205  0.97130364    -0.36900
O2737       O  0.03093472  0.79396401  0.84298091    -0.37800
O2738       O  0.99690306  0.77720244  0.85450799    -0.33900
O2739       O  0.05956559  0.68944697  0.95220927    -0.35300
O2740       O  0.09090817  0.70034349  0.45239805    -0.39600
C2741       C  0.29810448  0.41163303  0.84015394    -0.13300
C2742       C  0.31638780  0.39970828  0.85925467     0.17100
C2743       C  0.33503174  0.41321893  0.87517513     0.03300
C2744       C  0.33409994  0.43808915  0.87445889    -0.11800
C2745       C  0.31458901  0.45025866  0.85892916    -0.02900
C2746       C  0.29699069  0.43666983  0.83981670     0.02600
C2747       C  0.31464813  0.37348084  0.86494268     0.09400
N2748       N  0.35464667  0.40203597  0.89350969     0.65800
H2749       H  0.34815689  0.44800995  0.88849242     0.18700
N2750       N  0.27703296  0.44757431  0.82219785     0.76300
H2751       H  0.28385757  0.40142101  0.82719959     0.10200
C2752       C  0.30679652  0.36395148  0.89968076     0.03900
C2753       C  0.30425802  0.33936023  0.90411040    -0.04800
C2754       C  0.30916029  0.32339702  0.87442660    -0.23200
C2755       C  0.31714469  0.33301688  0.83942395     0.13200
C2756       C  0.31973455  0.35782863  0.83508553    -0.12300
N2757       N  0.30042388  0.37902710  0.93056216     0.64800
H2758       H  0.29809158  0.33283112  0.93126882     0.12700
N2759       N  0.32227616  0.31810701  0.80771982     0.61500
H2760       H  0.32558099  0.36493175  0.80810546     0.08800
O2761       O  0.25787986  0.44891072  0.84042781    -0.40000
O2762       O  0.27637365  0.44876236  0.78646835    -0.39200
O2763       O  0.37344040  0.39872193  0.87499141    -0.39200
O2764       O  0.35552190  0.40163868  0.92925703    -0.36900
O2765       O  0.30676555  0.31521750  0.78221424    -0.37800
O2766       O  0.34356096  0.31298358  0.80066287    -0.33900
O2767       O  0.27892556  0.38445265  0.93482313    -0.35300
O2768       O  0.31436115  0.38090489  0.95846471    -0.39600
C2769       C  0.31090210  0.57964920  0.84845253    -0.13300
C2770       C  0.29384917  0.58937083  0.87297612     0.17100
C2771       C  0.27951657  0.57371744  0.89428561     0.03300
C2772       C  0.28287151  0.54915899  0.89181646    -0.11800
C2773       C  0.30041238  0.53934992  0.86853219    -0.02900
C2774       C  0.31438140  0.55486223  0.84619351     0.02600
C2775       C  0.29164797  0.61572534  0.87735125     0.09400
N2776       N  0.26263099  0.58247583  0.92085267     0.65800
H2777       H  0.27229975  0.53759031  0.90970391     0.18700
N2778       N  0.33322918  0.54603199  0.82331340     0.76300
H2779       H  0.32205604  0.59140546  0.83182858     0.10200
C2780       C  0.31019883  0.62959344  0.89321000     0.03900
C2781       C  0.30692389  0.65395875  0.90007357    -0.04800
C2782       C  0.28557982  0.66508246  0.89049636    -0.23200
C2783       C  0.26734697  0.65155598  0.87335870     0.13200
C2784       C  0.27036420  0.62704773  0.86725293    -0.12300
N2785       N  0.33215256  0.61900864  0.90397158     0.64800
H2786       H  0.32101260  0.66417690  0.91345231     0.12700
N2787       N  0.24527204  0.66237035  0.86372864     0.61500
H2788       H  0.25595249  0.61674885  0.85497239     0.08800
O2789       O  0.35410439  0.54634389  0.83632651    -0.40000
O2790       O  0.33008987  0.54394734  0.78801896    -0.39200
O2791       O  0.24080369  0.58038181  0.91348380    -0.39200
O2792       O  0.26910519  0.58622875  0.95463015    -0.36900
O2793       O  0.24347786  0.67395027  0.83323872    -0.37800
O2794       O  0.22939568  0.66429660  0.88865482    -0.33900
O2795       O  0.35016377  0.62207248  0.88336166    -0.35300
O2796       O  0.33479555  0.61149667  0.93739665    -0.39600
C2797       C  0.25312234  0.57910809  0.59105655    -0.13300
C2798       C  0.27145736  0.59473015  0.58093354     0.17100
C2799       C  0.29103962  0.58626083  0.56038057     0.03300
C2800       C  0.29148661  0.56252690  0.54895636    -0.11800
C2801       C  0.27335521  0.54685617  0.55962444    -0.02900
C2802       C  0.25399185  0.55518989  0.58079702     0.02600
C2803       C  0.27066861  0.61925142  0.59498487     0.09400
N2804       N  0.31138862  0.60092236  0.55368345     0.65800
H2805       H  0.30650899  0.55605262  0.53296681     0.18700
N2806       N  0.23478246  0.53985043  0.59112753     0.76300
H2807       H  0.23816419  0.58551858  0.60726338     0.10200
C2808       C  0.26773575  0.63872029  0.57043414     0.03900
C2809       C  0.26832606  0.66173771  0.58518710    -0.04800
C2810       C  0.27098382  0.66561860  0.62429549    -0.23200
C2811       C  0.27244411  0.64592352  0.64903527     0.13200
C2812       C  0.27256709  0.62299372  0.63408606    -0.12300
N2813       N  0.26288139  0.63540123  0.53096473     0.64800
H2814       H  0.26639088  0.67665098  0.56601050     0.12700
N2815       N  0.27476784  0.64880444  0.68916138     0.61500
H2816       H  0.27441033  0.60797850  0.65309496     0.08800
O2817       O  0.21693319  0.53845383  0.56954660    -0.40000
O2818       O  0.23277267  0.53342826  0.62524440    -0.39200
O2819       O  0.32801189  0.60102670  0.57773788    -0.39200
O2820       O  0.31548599  0.60822911  0.52053335    -0.36900
O2821       O  0.25657716  0.64688274  0.70972246    -0.37800
O2822       O  0.29502719  0.64736420  0.70425471    -0.33900
O2823       O  0.24159515  0.63336754  0.52020374    -0.35300
O2824       O  0.27852655  0.64090599  0.50697154    -0.39600
C2825       C  0.26454517  0.41942091  0.56959493    -0.13300
C2826       C  0.28661553  0.41275100  0.58429148     0.17100
C2827       C  0.30507804  0.42960821  0.58709610     0.03300
C2828       C  0.30135782  0.45281257  0.57470197    -0.11800
C2829       C  0.27948132  0.45937504  0.55926628    -0.02900
C2830       C  0.26085768  0.44263524  0.55698435     0.02600
C2831       C  0.29061483  0.38766883  0.59351658     0.09400
N2832       N  0.32768596  0.42337073  0.60230015     0.65800
H2833       H  0.31568340  0.46569474  0.57671375     0.18700
N2834       N  0.23799695  0.44913296  0.54300584     0.76300
H2835       H  0.25029014  0.40645887  0.56741482     0.10200
C2836       C  0.28214442  0.37764008  0.62730443     0.03900
C2837       C  0.28539364  0.35347319  0.63416726    -0.04800
C2838       C  0.29704500  0.33882340  0.60777343    -0.23200
C2839       C  0.30533576  0.34911252  0.57357258     0.13200
C2840       C  0.30204968  0.37336687  0.56689698    -0.12300
N2841       N  0.27056300  0.39182534  0.65520525     0.64800
H2842       H  0.27897614  0.34630749  0.66075964     0.12700
N2843       N  0.31685135  0.33537656  0.54506188     0.61500
H2844       H  0.30824840  0.38107204  0.54052028     0.08800
O2845       O  0.22223483  0.45553475  0.56610313    -0.40000
O2846       O  0.23212456  0.44362693  0.50956081    -0.39200
O2847       O  0.34457194  0.41909385  0.57998434    -0.39200
O2848       O  0.33209219  0.42751024  0.63678782    -0.36900
O2849       O  0.30466761  0.32681161  0.51818549    -0.37800
O2850       O  0.33904014  0.33720260  0.54133137    -0.33900
O2851       O  0.24833310  0.39035856  0.65865419    -0.35300
O2852       O  0.28269430  0.40112795  0.68151353    -0.39600
C2853       C  0.30655492  0.51020520  0.66618053    -0.13300
C2854       C  0.28988106  0.49838207  0.68897255     0.17100
C2855       C  0.26917027  0.48897224  0.67172219     0.03300
C2856       C  0.26585032  0.49112764  0.63252227    -0.11800
C2857       C  0.28261140  0.50273271  0.60975742    -0.02900
C2858       C  0.30326016  0.51223073  0.62688013     0.02600
C2859       C  0.29397452  0.49704075  0.73067953     0.09400
N2860       N  0.25152187  0.47673183  0.69332366     0.65800
H2861       H  0.25005330  0.48359669  0.61955929     0.18700
N2862       N  0.32170226  0.52276954  0.60478129     0.76300
H2863       H  0.32233330  0.51789823  0.67895310     0.10200
C2864       C  0.31495111  0.48741483  0.74626229     0.03900
C2865       C  0.31829895  0.48708095  0.78565149    -0.04800
C2866       C  0.30116676  0.49623228  0.81025717    -0.23200
C2867       C  0.28035145  0.50621166  0.79470804     0.13200
C2868       C  0.27706090  0.50662707  0.75529435    -0.12300
N2869       N  0.33285460  0.47745760  0.72263743     0.64800
H2870       H  0.33442547  0.47961095  0.79722163     0.12700
N2871       N  0.26189225  0.51512158  0.81830238     0.61500
H2872       H  0.26113447  0.51457311  0.74384200     0.08800
O2873       O  0.33795056  0.50963016  0.59229978    -0.40000
O2874       O  0.32572749  0.54474947  0.60817811    -0.39200
O2875       O  0.23228975  0.48709735  0.70058846    -0.39200
O2876       O  0.25235047  0.45438419  0.69562216    -0.36900
O2877       O  0.24632631  0.50085599  0.83045477    -0.37800
O2878       O  0.25721582  0.53700554  0.81721557    -0.33900
O2879       O  0.35178697  0.48903091  0.71713938    -0.35300
O2880       O  0.33247591  0.45542035  0.71607728    -0.39600
loop_ 
_geom_bond_atom_site_label_1 
_geom_bond_atom_site_label_2 
_geom_bond_distance 
_geom_bond_site_symmetry_2 
_ccdc_geom_bond_type 
N1            C5   1.352       .  A
N1            C2   1.355       .  A
N1         C1417   1.447       .  S
C2            C3   1.384       .  A
C2         C1389   1.473       .  S
C3            C4   1.375       .  A
C3            H6   1.081   1_554  S
C4            C5   1.381       .  A
C4            H7   1.082   1_554  S
C5         C1361   1.462       .  S
N8           C12   1.364       .  A
N8            C9   1.366       .  A
N8         C1426   1.442       .  S
C9           C10   1.383       .  A
C9         C1333   1.489       .  S
C10          C11   1.371       .  A
C10          H13   1.082       .  S
C11          C12   1.380       .  A
C11          H14   1.082       .  S
C12        C1305   1.489       .  S
N15          C19   1.358       .  A
N15          C16   1.356       .  A
N15        C1286   1.451       .  S
C16          C17   1.379       .  A
C16        C1221   1.466       .  S
C17          C18   1.369       .  A
C17          H20   1.082       .  S
C18          C19   1.382       .  A
C18          H21   1.081       .  S
C19        C1258   1.464       .  S
N22          C26   1.365       .  A
N22          C23   1.366       .  A
N22        C1277   1.445       .  S
C23          C24   1.382       .  A
C23        C1165   1.493       .  S
C24          C25   1.369       .  A
C24          H27   1.083       .  S
C25          C26   1.383       .  A
C25          H28   1.082       .  S
C26        C1202   1.489   1_455  S
O29         Ni35   1.924       .  S
O29          C50   1.271       .  A
O30         Ni53   1.901       .  S
O30          C39   1.268       .  A
O31         Ni35   1.898       .  S
O31         Ni53   1.898       .  S
O31         Ni47   1.909       .  S
O31          H54   0.968       .  S
C32        C1230   1.474       .  S
C32          O49   1.276       .  A
C32          O41   1.277       .  A
O33         Ni52   1.924       .  S
O33          C39   1.271       .  A
O34         Ni52   1.918       .  S
O34          C36   1.269       .  A
Ni35         O38   1.906       .  S
Ni35         O40   1.918       .  S
C36        C1342   1.483       .  S
C36          O46   1.274       .  A
O37         Ni53   1.922       .  S
O37          C43   1.276       .  A
O38          C43   1.277       .  A
C39        C1505   1.461       .  S
O40          C42   1.270       .  A
O41         Ni52   1.931       .  S
C42        C1137   1.494       .  S
C42          O48   1.277       .  A
C43        C1109   1.483       .  S
H44          O45   0.971       .  S
O45         Ni53   1.909       .  S
O45         Ni47   1.898       .  S
O45         Ni52   1.910       .  S
O46         Ni47   1.944       .  S
Ni47         O51   1.910       .  S
Ni47         O49   1.898       .  S
O48         Ni53   1.941       .  S
C50          C76   1.466       .  S
C50          O51   1.270       .  A
O55         Ni61   1.931       .  S
O55          C76   1.272       .  A
O56         Ni79   1.898       .  S
O56          C65   1.267       .  A
O57         Ni61   1.913       .  S
O57         Ni79   1.902       .  S
O57         Ni73   1.903       .  S
O57          H80   0.963       .  S
C58        C1081   1.476       .  S
C58          O75   1.274       .  A
C58          O67   1.274       .  A
O59         Ni78   1.923       .  S
O59          C65   1.269       .  A
O60         Ni78   1.903       .  S
O60          C62   1.270       .  A
Ni61         O64   1.925       .  S
Ni61         O66   1.920       .  S
C62        C1053   1.498       .  S
C62          O72   1.275       .  A
O63         Ni79   1.893       .  S
O63          C69   1.272       .  A
O64          C69   1.275       .  A
C65        C1479   1.458       .  S
O66          C68   1.273       .  A
O67         Ni78   1.912       .  S
C68        C1174   1.501       .  S
C68          O74   1.274       .  A
C69        C1370   1.464       .  S
H70          O71   0.965       .  S
O71         Ni79   1.901       .  S
O71         Ni73   1.899       .  S
O71         Ni78   1.904       .  S
O72         Ni73   1.942       .  S
Ni73         O77   1.900       .  S
Ni73         O75   1.899       .  S
O74         Ni79   1.941       .  S
C76          O77   1.268       .  A
N81          C85   1.368       .  A
N81          C82   1.369       .  A
N81        C1025   1.450       .  S
C82          C83   1.381       .  A
C82        C1062   1.495       .  S
C83          C84   1.369       .  A
C83          H86   1.082       .  S
C84          C85   1.383       .  A
C84          H87   1.082       .  S
C85         C997   1.493       .  S
N88          C92   1.351       .  A
N88          C89   1.353       .  A
N88        C1034   1.447       .  S
C89          C90   1.382       .  A
C89        C1118   1.462       .  S
C90          C91   1.374       .  A
C90          H93   1.082       .  S
C91          C92   1.380       .  A
C91          H94   1.080       .  S
C92         C969   1.464       .  S
O95        Ni101   1.935       .  S
O95         C116   1.276       .  A
O96        Ni119   1.882       .  S
O96         C105   1.265       .  A
O97        Ni101   1.900       .  S
O97        Ni119   1.888       .  S
O97        Ni113   1.904       .  S
O97         H120   0.964       .  S
C98         C978   1.468       .  S
C98         O115   1.274       .  A
C98         O107   1.275       .  A
O99        Ni118   1.927       .  S
O99         C105   1.272       .  A
O100       Ni118   1.924       .  S
O100        C102   1.273       .  A
Ni101       O104   1.924       .  S
Ni101       O106   1.933       .  S
C102        C941   1.512       .  S
C102        O112   1.282       .  A
O103       Ni119   1.906       .  S
O103        C109   1.274       .  A
O104        C109   1.277       .  A
C105        C131   1.454       .  S
O106        C108   1.273       .  A
O107       Ni118   1.926       .  S
C108        C913   1.514       .  S
C108        O114   1.278       .  A
C109       C1249   1.463       .  S
H110        O111   0.972       .  S
O111       Ni119   1.901       .  S
O111       Ni113   1.896       .  S
O111       Ni118   1.913       .  S
O112       Ni113   1.963       .  S
Ni113       O117   1.906       .  S
Ni113       O115   1.898       .  S
O114       Ni119   1.945       .  S
C116       C1582   1.469       .  S
C116        O117   1.272       .  A
O121       Ni127   1.923       .  S
O121        C142   1.270       .  A
O122       Ni145   1.893       .  S
O122        C131   1.264       .  A
O123       Ni127   1.912       .  S
O123       Ni145   1.894       .  S
O123       Ni139   1.905       .  S
O123        H146   0.969       .  S
C124        C857   1.491       .  S
C124        O141   1.270       .  A
C124        O133   1.267       .  A
O125       Ni144   1.907       .  S
O125        C131   1.266       .  A
O126       Ni144   1.904       .  S
O126        C128   1.270       .  A
Ni127       O130   1.922       .  S
Ni127       O132   1.916       .  S
C128       C1193   1.494       .  S
C128        O138   1.282       .  A
O129       Ni145   1.907       .  S
O129        C135   1.273       .  A
O130        C135   1.276       .  A
O132        C134   1.271       .  A
O133       Ni144   1.921       .  S
C134       C1006   1.492       .  S
C134        O140   1.274       .  A
C135        C885   1.479       .  S
H136        O137   0.965       .  S
O137       Ni145   1.937       .  S
O137       Ni139   1.919       .  S
O137       Ni144   1.926       .  S
O138       Ni139   1.959       .  S
Ni139       O143   1.908       .  S
Ni139       O141   1.914       .  S
O140       Ni145   1.945       .  S
C142       C1556   1.467   1_554  S
C142        O143   1.268       .  A
N147        C151   1.360       .  A
N147        C148   1.358       .  A
N147        C838   1.443       .  S
C148        C149   1.380   1_554  A
C148        C866   1.476       .  S
C149        C150   1.373       .  A
C149        H152   1.082       .  S
C150        C151   1.383   1_556  A
C150        H153   1.082       .  S
C151        C801   1.481       .  S
N154        C158   1.362       .  A
N154        C155   1.365       .  A
N154        C829   1.440       .  S
C155        C156   1.385       .  A
C155        C922   1.497       .  S
C156        C157   1.378       .  A
C156        H159   1.082       .  S
C157        C158   1.380       .  A
C157        H160   1.082       .  S
C158        C773   1.491       .  S
N161        C165   1.365       .  A
N161        C162   1.366   1_545  A
N161        C754   1.440       .  S
C162        C163   1.381       .  A
C162        C950   1.499       .  S
C163        C164   1.378   1_565  A
C163        H166   1.082       .  S
C164        C165   1.384       .  A
C164        H167   1.082       .  S
C165        C717   1.498       .  S
N168        C172   1.359       .  A
N168        C169   1.353   1_545  A
N168        C745   1.447       .  S
C169        C170   1.380       .  A
C169        C894   1.473       .  S
C170        C171   1.378   1_565  A
C170        H173   1.082       .  S
C171        C172   1.386       .  A
C171        H174   1.081       .  S
C172        C689   1.480       .  S
O175       Ni181   1.934       .  S
O175        C196   1.271       .  A
O176       Ni199   1.898       .  S
O176        C185   1.270       .  A
O177       Ni181   1.916       .  S
O177       Ni199   1.908       .  S
O177       Ni193   1.906       .  S
O177        H200   0.975       .  S
C178        C670   1.472       .  S
C178        O195   1.266       .  A
C178        O187   1.278       .  A
O179       Ni198   1.925       .  S
O179        C185   1.272       .  A
O180       Ni198   1.921       .  S
O180        C182   1.269       .  A
Ni181       O184   1.918       .  S
Ni181       O186   1.916       .  S
C182        C782   1.485       .  S
C182        O192   1.271       .  A
O183       Ni199   1.906       .  S
O183        C189   1.272       .  A
O184        C189   1.273       .  A
C185       C1651   1.458       .  S
O186        C188   1.271       .  A
O187       Ni198   1.938       .  S
C188        C726   1.502       .  S
C188        O194   1.277       .  A
C189        C633   1.464       .  S
H190        O191   0.973       .  S
O191       Ni199   1.899       .  S
O191       Ni193   1.889       .  S
O191       Ni198   1.914       .  S
O192       Ni193   1.933       .  S
Ni193       O197   1.879       .  S
Ni193       O195   1.882       .  S
O194       Ni199   1.937       .  S
C196        C222   1.455       .  S
C196        O197   1.257       .  A
O201       Ni207   1.935       .  S
O201        C222   1.273       .  A
O202       Ni225   1.895       .  S
O202        C211   1.266       .  A
O203       Ni207   1.922       .  S
O203       Ni225   1.904       .  S
O203       Ni219   1.907       .  S
O203        H226   0.961       .  S
C204        C698   1.475       .  S
C204        O221   1.266       .  A
C204        O213   1.273       .  A
O205       Ni224   1.915       .  S
O205        C211   1.266       .  A
O206       Ni224   1.909       .  S
O206        C208   1.267       .  A
Ni207       O210   1.937       .  S
Ni207       O212   1.928       .  S
C208        C577   1.492       .  S
C208        O218   1.274       .  A
O209       Ni225   1.907       .  S
O209        C215   1.272       .  A
O210        C215   1.277       .  A
C211       C1625   1.454   1_554  S
O212        C214   1.272       .  A
O213       Ni224   1.918       .  S
C214        C605   1.494       .  S
C214        O220   1.272       .  A
C215        C810   1.473       .  S
H216        O217   0.966       .  S
O217       Ni225   1.913       .  S
O217       Ni219   1.904       .  S
O217       Ni224   1.922       .  S
O218       Ni219   1.938       .  S
Ni219       O223   1.876       .  S
Ni219       O221   1.903       .  S
O220       Ni225   1.934       .  S
C222        O223   1.258       .  A
N227        C231   1.368       .  A
N227        C228   1.367       .  A
N227        C549   1.449       .  S
C228        C229   1.380       .  A
C228        C521   1.492       .  S
C229        C230   1.367       .  A
C229        H232   1.081       .  S
C230        C231   1.383       .  A
C230        H233   1.082       .  S
C231        C586   1.490       .  S
N234        C238   1.361       .  A
N234        C235   1.358       .  A
N234        C558   1.441       .  S
C235        C236   1.383       .  A
C235        C642   1.482       .  S
C236        C237   1.375       .  A
C236        H239   1.082       .  S
C237        C238   1.382       .  A
C237        H240   1.081       .  S
C238        C502   1.488       .  S
N241        C245   1.371   1_565  A
N241        C242   1.369       .  A
N241        C474   1.452       .  S
C242        C243   1.382       .  A
C242       C1146   1.492       .  S
C243        C244   1.372   1_565  A
C243        H246   1.082       .  S
C244        C245   1.380       .  A
C244        H247   1.082       .  S
C245        C437   1.496       .  S
N248        C252   1.355       .  A
N248        C249   1.353   1_565  A
N248        C465   1.453       .  S
C249        C250   1.379       .  A
C249        C409   1.460       .  S
C250        C251   1.368   1_545  A
C250        H253   1.082       .  S
C251        C252   1.381       .  A
C251        H254   1.078       .  S
C252       C1090   1.459       .  S
N255        C259   1.358       .  A
N255        C256   1.355       .  A
N255        C390   1.449       .  S
C256        C257   1.380       .  A
C256        C661   1.466       .  S
C257        C258   1.372       .  A
C257        H260   1.082       .  S
C258        C259   1.383       .  A
C258        H261   1.080       .  S
C259        C353   1.472       .  S
N262        C266   1.363       .  A
N262        C263   1.368       .  A
N262        C381   1.442       .  S
C263        C264   1.383       .  A
C263        C325   1.498       .  S
C264        C265   1.370       .  A
C264        H267   1.082       .  S
C265        C266   1.380       .  A
C265        H268   1.082       .  S
C266        C614   1.484       .  S
O269       Ni275   1.935       .  S
O269        C290   1.272       .  A
O270       Ni293   1.885       .  S
O270        C279   1.264       .  A
O271       Ni275   1.922       .  S
O271       Ni293   1.905       .  S
O271       Ni287   1.902       .  S
O271        H294   0.951       .  S
C272        C493   1.456       .  S
C272        O289   1.264       .  A
C272        O281   1.273       .  A
O273       Ni292   1.928       .  S
O273        C279   1.271       .  A
O274       Ni292   1.918       .  S
O274        C276   1.271       .  A
Ni275       O278   1.921       .  S
Ni275       O280   1.908       .  S
C276        C446   1.504       .  S
C276        O286   1.280       .  A
O277       Ni293   1.904       .  S
O277        C283   1.272       .  A
O278        C283   1.274       .  A
C279        C305   1.456       .  S
O280        C282   1.270       .  A
O281       Ni292   1.930       .  S
C282       C1314   1.505       .  S
C282        O288   1.274       .  A
C283        C362   1.467       .  S
H284        O285   0.961       .  S
O285       Ni293   1.910       .  S
O285       Ni287   1.906       .  S
O285       Ni292   1.923       .  S
O286       Ni287   1.960       .  S
Ni287       O291   1.891       .  S
Ni287       O289   1.891       .  S
O288       Ni293   1.947       .  S
C290       C1756   1.463       .  S
C290        O291   1.263       .  A
O295       Ni301   1.914       .  S
O295        C316   1.267       .  A
O296       Ni319   1.892       .  S
O296        C305   1.264       .  A
O297       Ni301   1.908       .  S
O297       Ni319   1.899       .  S
O297       Ni313   1.904       .  S
O297        H320   0.965       .  S
C298       C1398   1.482       .  S
C298        O315   1.271       .  A
C298        O307   1.277       .  A
O299       Ni318   1.924       .  S
O299        C305   1.269       .  A
O300       Ni318   1.907       .  S
O300        C302   1.267       .  A
Ni301       O304   1.901       .  S
Ni301       O306   1.908       .  S
C302        C334   1.495       .  S
C302        O312   1.279       .  A
O303       Ni319   1.909       .  S
O303        C309   1.275       .  A
O304        C309   1.273       .  A
O306        C308   1.270       .  A
O307       Ni318   1.923       .  S
C308        C530   1.500       .  S
C308        O314   1.271       .  A
C309        C418   1.466       .  S
H310        O311   0.966       .  S
O311       Ni319   1.910       .  S
O311       Ni313   1.910       .  S
O311       Ni318   1.911       .  S
O312       Ni313   1.953       .  S
Ni313       O317   1.904       .  S
Ni313       O315   1.904       .  S
O314       Ni319   1.937       .  S
C316       C1730   1.459   1_554  S
C316        O317   1.268       .  A
C321        C322   1.409       .  A
C321        C326   1.410       .  A
C321        H331   1.082       .  S
C322        C323   1.417       .  A
C322        C327   1.507       .  S
C323        N328   1.430       .  S
C323        C324   1.403       .  A
C324        C325   1.405       .  A
C324        H329   1.084       .  S
C325        C326   1.412       .  A
C326        N330   1.426       .  S
C327        C332   1.415       .  A
C327        C336   1.406       .  A
N328        O343   1.262       .  A
N328        O344   1.262       .  A
N330        O341   1.262       .  A
N330        O342   1.262       .  A
C332        N337   1.424       .  S
C332        C333   1.406       .  A
C333        C334   1.403       .  A
C333        H338   1.084       .  S
C334        C335   1.417       .  A
C335        N339   1.429       .  S
C335        C336   1.406       .  A
C336        H340   1.082       .  S
N337        O347   1.262       .  A
N337        O348   1.258       .  A
N339        O345   1.262       .  A
N339        O346   1.262       .  A
C349        C350   1.399       .  A
C349        C354   1.392       .  A
C349        H359   1.084       .  S
C350        C351   1.408       .  A
C350        C355   1.468       .  S
C351        N356   1.428       .  S
C351        C352   1.398       .  A
C352        C353   1.402       .  A
C352        H357   1.083       .  S
C353        C354   1.410       .  A
C354        N358   1.429       .  S
C355        C360   1.405       .  A
C355        C364   1.402       .  A
N356        O371   1.261       .  A
N356        O372   1.262       .  A
N358        O369   1.262       .  A
N358        O370   1.262       .  A
C360        N365   1.428       .  S
C360        C361   1.397       .  A
C361        C362   1.403       .  A
C361        H366   1.084       .  S
C362        C363   1.409       .  A
C363        N367   1.430       .  S
C363        C364   1.395       .  A
C364        H368   1.084       .  S
N365        O375   1.262       .  A
N365        O376   1.262       .  A
N367        O373   1.262       .  A
N367        O374   1.262       .  A
C377        C378   1.404       .  A
C377        C382   1.405   1_556  A
C377        H387   1.084       .  S
C378        C379   1.412       .  A
C378       C1823   1.489       .  S
C379        N384   1.426       .  S
C379        C380   1.399   1_556  A
C380        C381   1.399       .  A
C380        H385   1.083       .  S
C381        C382   1.414       .  A
C382        N386   1.429       .  S
C383        C388   1.409       .  A
C383        C392   1.404       .  A
C383       C1818   1.487       .  S
N384        O399   1.261       .  A
N384       O1840   1.261       .  A
N386        O397   1.262       .  A
N386        O398   1.262       .  A
C388        N393   1.428       .  S
C388        C389   1.402       .  A
C389        C390   1.405       .  A
C389        H394   1.083       .  S
C390        C391   1.414       .  A
C391        N395   1.430       .  S
C391        C392   1.405       .  A
C392        H396   1.084       .  S
N393        O403   1.262       .  A
N393       O1844   1.261       .  A
N395        O401   1.261       .  A
N395        O402   1.261       .  A
O400       N1824   1.261       .  A
O404       N1833   1.261       .  A
C405        C406   1.400       .  A
C405        C410   1.390       .  A
C405        H415   1.084       .  S
C406        C407   1.404       .  A
C406        C411   1.458       .  S
C407        N412   1.428       .  S
C407        C408   1.392       .  A
C408        C409   1.400       .  A
C408        H413   1.084       .  S
C409        C410   1.406       .  A
C410        N414   1.430       .  S
C411        C416   1.404       .  A
C411        C420   1.399       .  A
N412        O427   1.262       .  A
N412        O428   1.260       .  A
N414        O425   1.262       .  A
N414        O426   1.261       .  A
C416        N421   1.430       .  S
C416        C417   1.391       .  A
C417        C418   1.406       .  A
C417        H422   1.084       .  S
C418        C419   1.410       .  A
C419        N423   1.429       .  S
C419        C420   1.392       .  A
C420        H424   1.085       .  S
N421        O431   1.262       .  A
N421        O432   1.261       .  A
N423        O429   1.262       .  A
N423        O430   1.262       .  A
C433        C434   1.405       .  A
C433        C438   1.409       .  A
C433        H443   1.083       .  S
C434        C435   1.416       .  A
C434        C439   1.504       .  S
C435        N440   1.428       .  S
C435        C436   1.408       .  A
C436        C437   1.401       .  A
C436        H441   1.084       .  S
C437        C438   1.416       .  A
C438        N442   1.429       .  S
C439        C444   1.414       .  A
C439        C448   1.405       .  A
N440        O455   1.262       .  A
N440        O456   1.261       .  A
N442        O453   1.262       .  A
N442        O454   1.262       .  A
C444        N449   1.428       .  S
C444        C445   1.409       .  A
C445        C446   1.408       .  A
C445        H450   1.084       .  S
C446        C447   1.418       .  A
C447        N451   1.428       .  S
C447        C448   1.408       .  A
C448        H452   1.084       .  S
N449        O459   1.262       .  A
N449        O460   1.262       .  A
N451        O457   1.262       .  A
N451        O458   1.262       .  A
C461        C462   1.400       .  A
C461        C466   1.405       .  A
C461        H471   1.084       .  S
C462        C463   1.408   1_565  A
C462       C1907   1.486       .  S
C463        N468   1.429       .  S
C463        C464   1.404       .  A
C464        C465   1.408   1_545  A
C464        H469   1.083       .  S
C465        C466   1.417       .  A
C466        N470   1.426       .  S
C467        C472   1.406   1_565  A
C467        C476   1.398       .  A
C467       C1902   1.483       .  S
N468        O483   1.262       .  A
N468       O1924   1.262       .  A
N470        O481   1.262       .  A
N470        O482   1.262       .  A
C472        N477   1.427       .  S
C472        C473   1.401       .  A
C473        C474   1.406   1_545  A
C473        H478   1.082       .  S
C474        C475   1.419       .  A
C475        N479   1.426       .  S
C475        C476   1.403       .  A
C476        H480   1.084       .  S
N477        O487   1.262       .  A
N477       O1928   1.261       .  A
N479        O485   1.261       .  A
N479        O486   1.263       .  A
O484       N1908   1.262       .  A
O488       N1917   1.261       .  A
C489        C490   1.404       .  A
C489        C494   1.401       .  A
C489        H499   1.084       .  S
C490        C491   1.410       .  A
C490        C495   1.474       .  S
C491        N496   1.428       .  S
C491        C492   1.396       .  A
C492        C493   1.396       .  A
C492        H497   1.085       .  S
C493        C494   1.404       .  A
C494        N498   1.430       .  S
C495        C500   1.406       .  A
C495        C504   1.398       .  A
N496        O511   1.262       .  A
N496        O512   1.261       .  A
N498        O509   1.262       .  A
N498        O510   1.262       .  A
C500        N505   1.428       .  S
C500        C501   1.397       .  A
C501        C502   1.402       .  A
C501        H506   1.078       .  S
C502        C503   1.419       .  A
C503        N507   1.430       .  S
C503        C504   1.402       .  A
C504        H508   1.083       .  S
N505        O515   1.262       .  A
N505        O516   1.261       .  A
N507        O513   1.262       .  A
N507        O514   1.262       .  A
C517        C518   1.404       .  A
C517        C522   1.408       .  A
C517        H527   1.084       .  S
C518        C519   1.408       .  A
C518        C523   1.487       .  S
C519        N524   1.429       .  S
C519        C520   1.400       .  A
C520        C521   1.406       .  A
C520        H525   1.084       .  S
C521        C522   1.413       .  A
C522        N526   1.427       .  S
C523        C528   1.407       .  A
C523        C532   1.403       .  A
N524        O539   1.262       .  A
N524        O540   1.262       .  A
N526        O537   1.261       .  A
N526        O538   1.262       .  A
C528        N533   1.429       .  S
C528        C529   1.397       .  A
C529        C530   1.408       .  A
C529        H534   1.083       .  S
C530        C531   1.422       .  A
C531        N535   1.429       .  S
C531        C532   1.410       .  A
C532        H536   1.084       .  S
N533        O543   1.262       .  A
N533        O544   1.261       .  A
N535        O541   1.262       .  A
N535        O542   1.262       .  A
C545        C546   1.407       .  A
C545        C550   1.404       .  A
C545        H555   1.083       .  S
C546        C547   1.414       .  A
C546        C551   1.501       .  S
C547        N552   1.428       .  S
C547        C548   1.403       .  A
C548        C549   1.404       .  A
C548        H553   1.083       .  S
C549        C550   1.413       .  A
C550        N554   1.429       .  S
C551        C556   1.417       .  A
C551        C560   1.411       .  A
N552        O567   1.262       .  A
N552        O568   1.262       .  A
N554        O565   1.262       .  A
N554        O566   1.262       .  A
C556        N561   1.429       .  S
C556        C557   1.400       .  A
C557        C558   1.397       .  A
C557        H562   1.084       .  S
C558        C559   1.404       .  A
C559        N563   1.427       .  S
C559        C560   1.408       .  A
C560        H564   1.082       .  S
N561        O571   1.262       .  A
N561        O572   1.262       .  A
N563        O569   1.262       .  A
N563        O570   1.261       .  A
C573        C574   1.406       .  A
C573        C578   1.403       .  A
C573        H583   1.084       .  S
C574        C575   1.412       .  A
C574        C579   1.496       .  S
C575        N580   1.427       .  S
C575        C576   1.406       .  A
C576        C577   1.406       .  A
C576        H581   1.084       .  S
C577        C578   1.415       .  A
C578        N582   1.430       .  S
C579        C584   1.416       .  A
C579        C588   1.402       .  A
N580        O595   1.262       .  A
N580        O596   1.262       .  A
N582        O593   1.262       .  A
N582        O594   1.262       .  A
C584        N589   1.427       .  S
C584        C585   1.411       .  A
C585        C586   1.404       .  A
C585        H590   1.084       .  S
C586        C587   1.413       .  A
C587        N591   1.428       .  S
C587        C588   1.397       .  A
C588        H592   1.085       .  S
N589        O599   1.262       .  A
N589        O600   1.262       .  A
N591        O597   1.261       .  A
N591        O598   1.261       .  A
C601        C602   1.403       .  A
C601        C606   1.404       .  A
C601        H611   1.084       .  S
C602        C603   1.408       .  A
C602        C607   1.488       .  S
C603        N608   1.428       .  S
C603        C604   1.405       .  A
C604        C605   1.410       .  A
C604        H609   1.084       .  S
C605        C606   1.414       .  A
C606        N610   1.428       .  S
C607        C612   1.408       .  A
C607        C616   1.406       .  A
N608        O623   1.262       .  A
N608        O624   1.262       .  A
N610        O621   1.261       .  A
N610        O622   1.262       .  A
C612        N617   1.427       .  S
C612        C613   1.397   1_655  A
C613        C614   1.400       .  A
C613        H618   1.084       .  S
C614        C615   1.414       .  A
C615        N619   1.429       .  S
C615        C616   1.411   1_455  A
C616        H620   1.084       .  S
N617        O627   1.262       .  A
N617        O628   1.262       .  A
N619        O625   1.262       .  A
N619        O626   1.262       .  A
C629        C630   1.400       .  A
C629        C634   1.395       .  A
C629        H639   1.084       .  S
C630        C631   1.406       .  A
C630        C635   1.467       .  S
C631        N636   1.429       .  S
C631        C632   1.397       .  A
C632        C633   1.404       .  A
C632        H637   1.085       .  S
C633        C634   1.407       .  A
C634        N638   1.428       .  S
C635        C640   1.402       .  A
C635        C644   1.399       .  A
N636        O651   1.262       .  A
N636        O652   1.262       .  A
N638        O649   1.261       .  A
N638        O650   1.262       .  A
C640        N645   1.429       .  S
C640        C641   1.395       .  A
C641        C642   1.405       .  A
C641        H646   1.083       .  S
C642        C643   1.414       .  A
C643        N647   1.428       .  S
C643        C644   1.402       .  A
C644        H648   1.084       .  S
N645        O655   1.262       .  A
N645        O656   1.262       .  A
N647        O653   1.262       .  A
N647       O2094   1.262       .  A
O654       N2087   1.261       .  A
C657        C658   1.400       .  A
C657        C662   1.393   1_655  A
C657        H667   1.083       .  S
C658        C659   1.412       .  A
C658        C663   1.473       .  S
C659        N664   1.430       .  S
C659        C660   1.396   1_655  A
C660        C661   1.399       .  A
C660        H665   1.084       .  S
C661        C662   1.406       .  A
C662        N666   1.427       .  S
C663        C668   1.410       .  A
C663        C672   1.400       .  A
N664        O679   1.262       .  A
N664        O680   1.262       .  A
N666        O677   1.261       .  A
N666        O678   1.262       .  A
C668        N673   1.429       .  S
C668        C669   1.394       .  A
C669        C670   1.403       .  A
C669        H674   1.084       .  S
C670        C671   1.414       .  A
C671        N675   1.430       .  S
C671        C672   1.394       .  A
C672        H676   1.084       .  S
N673        O683   1.262       .  A
N673        O684   1.262       .  A
N675        O681   1.262       .  A
N675        O682   1.262       .  A
C685        C686   1.398       .  A
C685        C690   1.399       .  A
C685        H695   1.084       .  S
C686        C687   1.404       .  A
C686        C691   1.467       .  S
C687        N692   1.428       .  S
C687        C688   1.393       .  A
C688        C689   1.403       .  A
C688        H693   1.081       .  S
C689        C690   1.415       .  A
C690        N694   1.429       .  S
C691        C696   1.404       .  A
C691        C700   1.399       .  A
N692        O707   1.262       .  A
N692        O708   1.262       .  A
N694        O705   1.262       .  A
N694        O706   1.262       .  A
C696        N701   1.428       .  S
C696        C697   1.393       .  A
C697        C698   1.403       .  A
C697        H702   1.084       .  S
C698        C699   1.416       .  A
C699        N703   1.429       .  S
C699        C700   1.400       .  A
C700        H704   1.084       .  S
N701        O711   1.262       .  A
N701        O712   1.262       .  A
N703        O709   1.262       .  A
N703        O710   1.262       .  A
C713        C714   1.398       .  A
C713        C718   1.403       .  A
C713        H723   1.084       .  S
C714        C715   1.409       .  A
C714        C719   1.488       .  S
C715        N720   1.429       .  S
C715        C716   1.411       .  A
C716        C717   1.408       .  A
C716        H721   1.083       .  S
C717        C718   1.418       .  A
C718        N722   1.429       .  S
C719        C724   1.407       .  A
C719        C728   1.400       .  A
N720        O735   1.262       .  A
N720        O736   1.262       .  A
N722        O733   1.262       .  A
N722        O734   1.262       .  A
C724        N729   1.428       .  S
C724        C725   1.405       .  A
C725        C726   1.411       .  A
C725        H730   1.083       .  S
C726        C727   1.422       .  A
C727        N731   1.429       .  S
C727        C728   1.403       .  A
C728        H732   1.084       .  S
N729        O739   1.262       .  A
N729        O740   1.262       .  A
N731        O737   1.262       .  A
N731        O738   1.262       .  A
C741        C742   1.406       .  A
C741        C746   1.404       .  A
C741        H751   1.083       .  S
C742        C743   1.413   1_545  A
C742       C2187   1.490       .  S
C743        N748   1.429       .  S
C743        C744   1.397       .  A
C744        C745   1.401   1_565  A
C744        H749   1.082       .  S
C745        C746   1.411       .  A
C746        N750   1.428       .  S
C747        C752   1.416       .  A
C747        C756   1.404       .  A
C747       C2182   1.493       .  S
N748        O763   1.262       .  A
N748        O764   1.262       .  A
N750        O761   1.262       .  A
N750        O762   1.262       .  A
C752        N757   1.428   1_545  S
C752        C753   1.401       .  A
C753        C754   1.398       .  A
C753        H758   1.080   1_545  S
C754        C755   1.409       .  A
C755        N759   1.427       .  S
C755        C756   1.401       .  A
C756        H760   1.083       .  S
N757        O767   1.262   1_565  A
N757       O2208   1.261       .  A
N759        O765   1.262       .  A
N759        O766   1.262       .  A
O768       N2197   1.262       .  A
C769        C770   1.402       .  A
C769        C774   1.405       .  A
C769        H779   1.084       .  S
C770        C771   1.414       .  A
C770        C775   1.494       .  S
C771        N776   1.429       .  S
C771        C772   1.406       .  A
C772        C773   1.403       .  A
C772        H777   1.084       .  S
C773        C774   1.415       .  A
C774        N778   1.428       .  S
C775        C780   1.412       .  A
C775        C784   1.406       .  A
N776        O791   1.262       .  A
N776        O792   1.262       .  A
N778        O789   1.262       .  A
N778        O790   1.261       .  A
C780        N785   1.426       .  S
C780        C781   1.401       .  A
C781        C782   1.403       .  A
C781        H786   1.084       .  S
C782        C783   1.411       .  A
C783        N787   1.428       .  S
C783        C784   1.407       .  A
C784        H788   1.083       .  S
N785        O795   1.262       .  A
N785        O796   1.260       .  A
N787        O793   1.261       .  A
N787        O794   1.262       .  A
C797        C798   1.403       .  A
C797        C802   1.402       .  A
C797        H807   1.084       .  S
C798        C799   1.407       .  A
C798        C803   1.477       .  S
C799        N804   1.429       .  S
C799        C800   1.397       .  A
C800        C801   1.403       .  A
C800        H805   1.084   1_554  S
C801        C802   1.411       .  A
C802        N806   1.429       .  S
C803        C808   1.410       .  A
C803        C812   1.399       .  A
N804        O819   1.262       .  A
N804        O820   1.261   1_554  A
N806        O817   1.262       .  A
N806        O818   1.262       .  A
C808        N813   1.428       .  S
C808        C809   1.402       .  A
C809        C810   1.401       .  A
C809        H814   1.084       .  S
C810        C811   1.410       .  A
C811        N815   1.426       .  S
C811        C812   1.398       .  A
C812        H816   1.084       .  S
N813        O823   1.262       .  A
N813        O824   1.261   1_554  A
N815        O821   1.262       .  A
N815        O822   1.260       .  A
C825        C826   1.403       .  A
C825        C830   1.401       .  A
C825        H835   1.084       .  S
C826        C827   1.412       .  A
C826        C831   1.486       .  S
C827        N832   1.429       .  S
C827        C828   1.400       .  A
C828        C829   1.399       .  A
C828        H833   1.079       .  S
C829        C830   1.408       .  A
C830        N834   1.426       .  S
C831        C836   1.412       .  A
C831        C840   1.402       .  A
N832        O847   1.262       .  A
N832        O848   1.262       .  A
N834        O845   1.262       .  A
N834        O846   1.261       .  A
C836        N841   1.428       .  S
C836        C837   1.399       .  A
C837        C838   1.401       .  A
C837        H842   1.083       .  S
C838        C839   1.413       .  A
C839        N843   1.428       .  S
C839        C840   1.403       .  A
C840        H844   1.084       .  S
N841        O851   1.262       .  A
N841        O852   1.262       .  A
N843        O849   1.262       .  A
N843        O850   1.262       .  A
C853        C854   1.396       .  A
C853        C858   1.395       .  A
C853        H863   1.084       .  S
C854        C855   1.410       .  A
C854        C859   1.478       .  S
C855        N860   1.429       .  S
C855        C856   1.403       .  A
C856        C857   1.408       .  A
C856        H861   1.083       .  S
C857        C858   1.421       .  A
C858        N862   1.429       .  S
C859        C864   1.411       .  A
C859        C868   1.402       .  A
N860        O875   1.262   1_554  A
N860        O876   1.262   1_554  A
N862        O873   1.262       .  A
N862        O874   1.262       .  A
C864        N869   1.429       .  S
C864        C865   1.397       .  A
C865        C866   1.400       .  A
C865        H870   1.084       .  S
C866        C867   1.411       .  A
C867        N871   1.428       .  S
C867        C868   1.402       .  A
C868        H872   1.084       .  S
N869        O879   1.262       .  A
N869        O880   1.262       .  A
N871        O877   1.262       .  A
N871        O878   1.262       .  A
C881        C882   1.402       .  A
C881        C886   1.397       .  A
C881        H891   1.084       .  S
C882        C883   1.408       .  A
C882        C887   1.475       .  S
C883        N888   1.429       .  S
C883        C884   1.397       .  A
C884        C885   1.407       .  A
C884        H889   1.084       .  S
C885        C886   1.414       .  A
C886        N890   1.430       .  S
C887        C892   1.410       .  A
C887        C896   1.402       .  A
N888        O903   1.262       .  A
N888        O904   1.262       .  A
N890        O901   1.262       .  A
N890        O902   1.262       .  A
C892        N897   1.428       .  S
C892        C893   1.399       .  A
C893        C894   1.401       .  A
C893        H898   1.084       .  S
C894        C895   1.408       .  A
C895        N899   1.429       .  S
C895        C896   1.396       .  A
C896        H900   1.084       .  S
N897        O907   1.262       .  A
N897        O908   1.262       .  A
N899        O905   1.262       .  A
N899        O906   1.262       .  A
C909        C910   1.403       .  A
C909        C914   1.408       .  A
C909        H919   1.083       .  S
C910        C911   1.415       .  A
C910        C915   1.506       .  S
C911        N916   1.429       .  S
C911        C912   1.411       .  A
C912        C913   1.411       .  A
C912        H917   1.083       .  S
C913        C914   1.423       .  A
C914        N918   1.428       .  S
C915        C920   1.419       .  A
C915        C924   1.404       .  A
N916        O931   1.262       .  A
N916        O932   1.262       .  A
N918        O929   1.262       .  A
N918        O930   1.262       .  A
C920        N925   1.428       .  S
C920        C921   1.410       .  A
C921        C922   1.402       .  A
C921        H926   1.084       .  S
C922        C923   1.416       .  A
C923        N927   1.430       .  S
C923        C924   1.407       .  A
C924        H928   1.083       .  S
N925        O935   1.262       .  A
N925        O936   1.262       .  A
N927        O933   1.262       .  A
N927        O934   1.262       .  A
C937        C938   1.403       .  A
C937        C942   1.409       .  A
C937        H947   1.084       .  S
C938        C939   1.412       .  A
C938        C943   1.503       .  S
C939        N944   1.428       .  S
C939        C940   1.412       .  A
C940        C941   1.411       .  A
C940        H945   1.083       .  S
C941        C942   1.422       .  A
C942        N946   1.428       .  S
C943        C948   1.414       .  A
C943        C952   1.404       .  A
N944        O959   1.262       .  A
N944        O960   1.262       .  A
N946        O957   1.262       .  A
N946        O958   1.262       .  A
C948        N953   1.428       .  S
C948        C949   1.411       .  A
C949        C950   1.405       .  A
C949        H954   1.084       .  S
C950        C951   1.415       .  A
C951        N955   1.429       .  S
C951        C952   1.410       .  A
C952        H956   1.084       .  S
N953        O963   1.262       .  A
N953        O964   1.262       .  A
N955        O961   1.262       .  A
N955        O962   1.262       .  A
C965        C966   1.402       .  A
C965        C970   1.394       .  A
C965        H975   1.084       .  S
C966        C967   1.412       .  A
C966        C971   1.473       .  S
C967        N972   1.429       .  S
C967        C968   1.397       .  A
C968        C969   1.398       .  A
C968        H973   1.084       .  S
C969        C970   1.406       .  A
C970        N974   1.430       .  S
C971        C976   1.410       .  A
C971        C980   1.401       .  A
N972        O987   1.262       .  A
N972        O988   1.261       .  A
N974        O985   1.261       .  A
N974        O986   1.262       .  A
C976        N981   1.428       .  S
C976        C977   1.394       .  A
C977        C978   1.399       .  A
C977        H982   1.084       .  S
C978        C979   1.413       .  A
C979        N983   1.430       .  S
C979        C980   1.396       .  A
C980        H984   1.084       .  S
N981        O991   1.262       .  A
N981        O992   1.262       .  A
N983        O989   1.262       .  A
N983        O990   1.262       .  A
C993        C994   1.398       .  A
C993        C998   1.399       .  A
C993       H1003   1.084       .  S
C994        C995   1.413       .  A
C994        C999   1.490       .  S
C995       N1000   1.428       .  S
C995        C996   1.410       .  A
C996        C997   1.406       .  A
C996       H1001   1.083       .  S
C997        C998   1.416       .  A
C998       N1002   1.429       .  S
C999       C1004   1.411       .  A
C999       C1008   1.402       .  A
N1000      O1015   1.262       .  A
N1000      O1016   1.262       .  A
N1002      O1013   1.262       .  A
N1002      O1014   1.262       .  A
C1004      N1009   1.428       .  S
C1004      C1005   1.405       .  A
C1005      C1006   1.404       .  A
C1005      H1010   1.084       .  S
C1006      C1007   1.417       .  A
C1007      N1011   1.428       .  S
C1007      C1008   1.408       .  A
C1008      H1012   1.084       .  S
N1009      O1019   1.262       .  A
N1009      O1020   1.262       .  A
N1011      O1017   1.262       .  A
N1011      O1018   1.262       .  A
C1021      C1022   1.406       .  A
C1021      C1026   1.408       .  A
C1021      H1031   1.084       .  S
C1022      C1023   1.413       .  A
C1022      C1027   1.498       .  S
C1023      N1028   1.427       .  S
C1023      C1024   1.404       .  A
C1024      C1025   1.402       .  A
C1024      H1029   1.083       .  S
C1025      C1026   1.415       .  A
C1026      N1030   1.429       .  S
C1027      C1032   1.413       .  A
C1027      C1036   1.407       .  A
N1028      O1043   1.262       .  A
N1028      O1044   1.262       .  A
N1030      O1041   1.262       .  A
N1030      O1042   1.262       .  A
C1032      N1037   1.428       .  S
C1032      C1033   1.402       .  A
C1033      C1034   1.401       .  A
C1033      H1038   1.081       .  S
C1034      C1035   1.414       .  A
C1035      N1039   1.438       .  S
C1035      C1036   1.412       .  A
C1036      H1040   1.083       .  S
N1037      O1047   1.262       .  A
N1037      O1048   1.262       .  A
N1039      O1045   1.263       .  A
N1039      O1046   1.263       .  A
C1049      C1050   1.408       .  A
C1049      C1054   1.416       .  A
C1049      H1059   1.083       .  S
C1050      C1051   1.408       .  A
C1050      C1055   1.496       .  S
C1051      N1056   1.425       .  S
C1051      C1052   1.396       .  A
C1052      C1053   1.404       .  A
C1052      H1057   1.084       .  S
C1053      C1054   1.418       .  A
C1054      N1058   1.429       .  S
C1055      C1060   1.415       .  A
C1055      C1064   1.400       .  A
N1056      O1071   1.262       .  A
N1056      O1072   1.261       .  A
N1058      O1069   1.262       .  A
N1058      O1070   1.262       .  A
C1060      N1065   1.428       .  S
C1060      C1061   1.412       .  A
C1061      C1062   1.404       .  A
C1061      H1066   1.084       .  S
C1062      C1063   1.416       .  A
C1063      N1067   1.429       .  S
C1063      C1064   1.402       .  A
C1064      H1068   1.084       .  S
N1065      O1075   1.262       .  A
N1065      O1076   1.262       .  A
N1067      O1073   1.262       .  A
N1067      O1074   1.261       .  A
C1077      C1078   1.399       .  A
C1077      C1082   1.391       .  A
C1077      H1087   1.085       .  S
C1078      C1079   1.404       .  A
C1078      C1083   1.463       .  S
C1079      N1084   1.429       .  S
C1079      C1080   1.393       .  A
C1080      C1081   1.409       .  A
C1080      H1085   1.084       .  S
C1081      C1082   1.415       .  A
C1082      N1086   1.430       .  S
C1083      C1088   1.407       .  A
C1083      C1092   1.401       .  A
N1084      O1099   1.262       .  A
N1084      O1100   1.262       .  A
N1086      O1097   1.262       .  A
N1086      O1098   1.262       .  A
C1088      N1093   1.429       .  S
C1088      C1089   1.395       .  A
C1089      C1090   1.401       .  A
C1089      H1094   1.084       .  S
C1090      C1091   1.404       .  A
C1091      N1095   1.429       .  S
C1091      C1092   1.391       .  A
C1092      H1096   1.084       .  S
N1093      O1103   1.262       .  A
N1093      O1104   1.262       .  A
N1095      O1101   1.262       .  A
N1095      O1102   1.262       .  A
C1105      C1106   1.399       .  A
C1105      C1110   1.399       .  A
C1105      H1115   1.084       .  S
C1106      C1107   1.401       .  A
C1106      C1111   1.464       .  S
C1107      N1112   1.429       .  S
C1107      C1108   1.391       .  A
C1108      C1109   1.409       .  A
C1108      H1113   1.083       .  S
C1109      C1110   1.418       .  A
C1110      N1114   1.429       .  S
C1111      C1116   1.408       .  A
C1111      C1120   1.399       .  A
N1112      O1127   1.262       .  A
N1112      O1128   1.262       .  A
N1114      O1125   1.262       .  A
N1114      O1126   1.262       .  A
C1116      N1121   1.430       .  S
C1116      C1117   1.396       .  A
C1117      C1118   1.398       .  A
C1117      H1122   1.083       .  S
C1118      C1119   1.407       .  A
C1119      N1123   1.429       .  S
C1119      C1120   1.397       .  A
C1120      H1124   1.084       .  S
N1121      O1131   1.262       .  A
N1121      O1132   1.262       .  A
N1123      O1129   1.262       .  A
N1123      O1130   1.261       .  A
C1133      C1134   1.403       .  A
C1133      C1138   1.405       .  A
C1133      H1143   1.083       .  S
C1134      C1135   1.415       .  A
C1134      C1139   1.497       .  S
C1135      N1140   1.428       .  S
C1135      C1136   1.406       .  A
C1136      C1137   1.404       .  A
C1136      H1141   1.084       .  S
C1137      C1138   1.418       .  A
C1138      N1142   1.429       .  S
C1139      C1144   1.417       .  A
C1139      C1148   1.399       .  A
N1140      O1155   1.262       .  A
N1140      O1156   1.261       .  A
N1142      O1153   1.262       .  A
N1142      O1154   1.262       .  A
C1144      N1149   1.429       .  S
C1144      C1145   1.411       .  A
C1145      C1146   1.404       .  A
C1145      H1150   1.084       .  S
C1146      C1147   1.415       .  A
C1147      N1151   1.428       .  S
C1147      C1148   1.401       .  A
C1148      H1152   1.084       .  S
N1149      O1159   1.262       .  A
N1149      O1160   1.261       .  A
N1151      O1157   1.261       .  A
N1151      O1158   1.261       .  A
C1161      C1162   1.405       .  A
C1161      C1166   1.408       .  A
C1161      H1171   1.084       .  S
C1162      C1163   1.408       .  A
C1162      C1167   1.490       .  S
C1163      N1168   1.428       .  S
C1163      C1164   1.402       .  A
C1164      C1165   1.407       .  A
C1164      H1169   1.084       .  S
C1165      C1166   1.412       .  A
C1166      N1170   1.427       .  S
C1167      C1172   1.409       .  A
C1167      C1176   1.402       .  A
N1168      O1183   1.262       .  A
N1168      O1184   1.262       .  A
N1170      O1181   1.261       .  A
N1170      O1182   1.262       .  A
C1172      N1177   1.429       .  S
C1172      C1173   1.402       .  A
C1173      C1174   1.408       .  A
C1173      H1178   1.084       .  S
C1174      C1175   1.421       .  A
C1175      N1179   1.429       .  S
C1175      C1176   1.409       .  A
C1176      H1180   1.084       .  S
N1177      O1187   1.262       .  A
N1177      O1188   1.262       .  A
N1179      O1185   1.262       .  A
N1179      O1186   1.262       .  A
C1189      C1190   1.405       .  A
C1189      C1194   1.401       .  A
C1189      H1199   1.085       .  S
C1190      C1191   1.411       .  A
C1190      C1195   1.492       .  S
C1191      N1196   1.427       .  S
C1191      C1192   1.407       .  A
C1192      C1193   1.408       .  A
C1192      H1197   1.084       .  S
C1193      C1194   1.416       .  A
C1194      N1198   1.430       .  S
C1195      C1200   1.415       .  A
C1195      C1204   1.401       .  A
N1196      O1211   1.262       .  A
N1196      O1212   1.262       .  A
N1198      O1209   1.262       .  A
N1198      O1210   1.262       .  A
C1200      N1205   1.427       .  S
C1200      C1201   1.412       .  A
C1201      C1202   1.406       .  A
C1201      H1206   1.083   1_655  S
C1202      C1203   1.411       .  A
C1203      N1207   1.428       .  S
C1203      C1204   1.395       .  A
C1204      H1208   1.085       .  S
N1205      O1215   1.262       .  A
N1205      O1216   1.262       .  A
N1207      O1213   1.261       .  A
N1207      O1214   1.261       .  A
C1217      C1218   1.401       .  A
C1217      C1222   1.394       .  A
C1217      H1227   1.084       .  S
C1218      C1219   1.407       .  A
C1218      C1223   1.468       .  S
C1219      N1224   1.428       .  S
C1219      C1220   1.396       .  A
C1220      C1221   1.401       .  A
C1220      H1225   1.084       .  S
C1221      C1222   1.406       .  A
C1222      N1226   1.428       .  S
C1223      C1228   1.407       .  A
C1223      C1232   1.400       .  A
N1224      O1239   1.262       .  A
N1224      O1240   1.261       .  A
N1226      O1237   1.262       .  A
N1226      O1238   1.262       .  A
C1228      N1233   1.429       .  S
C1228      C1229   1.393       .  A
C1229      C1230   1.403       .  A
C1229      H1234   1.084       .  S
C1230      C1231   1.415       .  A
C1231      N1235   1.429       .  S
C1231      C1232   1.397       .  A
C1232      H1236   1.084       .  S
N1233      O1243   1.262       .  A
N1233      O1244   1.261       .  A
N1235      O1241   1.262       .  A
N1235      O1242   1.262       .  A
C1245      C1246   1.401       .  A
C1245      C1250   1.396       .  A
C1245      H1255   1.084       .  S
C1246      C1247   1.408       .  A
C1246      C1251   1.469       .  S
C1247      N1252   1.429       .  S
C1247      C1248   1.394       .  A
C1248      C1249   1.401       .  A
C1248      H1253   1.085       .  S
C1249      C1250   1.408       .  A
C1250      N1254   1.428       .  S
C1251      C1256   1.408       .  A
C1251      C1260   1.402       .  A
N1252      O1267   1.262       .  A
N1252      O1268   1.262       .  A
N1254      O1265   1.262       .  A
N1254      O1266   1.262       .  A
C1256      N1261   1.429       .  S
C1256      C1257   1.394       .  A
C1257      C1258   1.400   1_655  A
C1257      H1262   1.084   1_655  S
C1258      C1259   1.406   1_455  A
C1259      N1263   1.428       .  S
C1259      C1260   1.397       .  A
C1260      H1264   1.084       .  S
N1261      O1271   1.262       .  A
N1261      O1272   1.262       .  A
N1263      O1269   1.262   1_655  A
N1263      O1270   1.262       .  A
C1273      C1274   1.400   1_554  A
C1273      C1278   1.402       .  A
C1273      H1283   1.084   1_554  S
C1274      C1275   1.408       .  A
C1274      C2719   1.482       .  S
C1275      N1280   1.428       .  S
C1275      C1276   1.400   1_556  A
C1276      C1277   1.404       .  A
C1276      H1281   1.083       .  S
C1277      C1278   1.416       .  A
C1278      N1282   1.429       .  S
C1279      C1284   1.406       .  A
C1279      C1288   1.396       .  A
C1279      C2714   1.480       .  S
N1280      O1295   1.262       .  A
N1280      O2736   1.262       .  A
N1282      O1293   1.262   1_455  A
N1282      O1294   1.261       .  A
C1284      N1289   1.430       .  S
C1284      C1285   1.404       .  A
C1285      C1286   1.410       .  A
C1285      H1290   1.083       .  S
C1286      C1287   1.417       .  A
C1287      N1291   1.426       .  S
C1287      C1288   1.400       .  A
C1288      H1292   1.084       .  S
N1289      O1299   1.262       .  A
N1289      O2740   1.262       .  A
N1291      O1297   1.261       .  A
N1291      O1298   1.262   1_455  A
O1296      N2720   1.262       .  A
O1300      N2729   1.262       .  A
C1301      C1302   1.405       .  A
C1301      C1306   1.408       .  A
C1301      H1311   1.084       .  S
C1302      C1303   1.408       .  A
C1302      C1307   1.490       .  S
C1303      N1308   1.428       .  S
C1303      C1304   1.403       .  A
C1304      C1305   1.404       .  A
C1304      H1309   1.084       .  S
C1305      C1306   1.411       .  A
C1306      N1310   1.427       .  S
C1307      C1312   1.407       .  A
C1307      C1316   1.403       .  A
N1308      O1323   1.262       .  A
N1308      O1324   1.262       .  A
N1310      O1321   1.262       .  A
N1310      O1322   1.262       .  A
C1312      N1317   1.429       .  S
C1312      C1313   1.399       .  A
C1313      C1314   1.410       .  A
C1313      H1318   1.083       .  S
C1314      C1315   1.422       .  A
C1315      N1319   1.429       .  S
C1315      C1316   1.412       .  A
C1316      H1320   1.084       .  S
N1317      O1327   1.262       .  A
N1317      O1328   1.262       .  A
N1319      O1325   1.262       .  A
N1319      O1326   1.262       .  A
C1329      C1330   1.410       .  A
C1329      C1334   1.412       .  A
C1329      H1339   1.082       .  S
C1330      C1331   1.416       .  A
C1330      C1335   1.506       .  S
C1331      N1336   1.429       .  S
C1331      C1332   1.401       .  A
C1332      C1333   1.401       .  A
C1332      H1337   1.085       .  S
C1333      C1334   1.412       .  A
C1334      N1338   1.428       .  S
C1335      C1340   1.420       .  A
C1335      C1344   1.408       .  A
N1336      O1351   1.262       .  A
N1336      O1352   1.262       .  A
N1338      O1349   1.262       .  A
N1338      O1350   1.262       .  A
C1340      N1345   1.429       .  S
C1340      C1341   1.409       .  A
C1341      C1342   1.401       .  A
C1341      H1346   1.084       .  S
C1342      C1343   1.408       .  A
C1343      N1347   1.429       .  S
C1343      C1344   1.405       .  A
C1344      H1348   1.083       .  S
N1345      O1355   1.262       .  A
N1345      O1356   1.261       .  A
N1347      O1353   1.262       .  A
N1347      O1354   1.262       .  A
C1357      C1358   1.398       .  A
C1357      C1362   1.395       .  A
C1357      H1367   1.084       .  S
C1358      C1359   1.406       .  A
C1358      C1363   1.462       .  S
C1359      N1364   1.429       .  S
C1359      C1360   1.393       .  A
C1360      C1361   1.399       .  A
C1360      H1365   1.084       .  S
C1361      C1362   1.409       .  A
C1362      N1366   1.429       .  S
C1363      C1368   1.405       .  A
C1363      C1372   1.399       .  A
N1364      O1379   1.262       .  A
N1364      O1380   1.261       .  A
N1366      O1377   1.262       .  A
N1366      O1378   1.262       .  A
C1368      N1373   1.429       .  S
C1368      C1369   1.392       .  A
C1369      C1370   1.402       .  A
C1369      H1374   1.084       .  S
C1370      C1371   1.411       .  A
C1371      N1375   1.429       .  S
C1371      C1372   1.395       .  A
C1372      H1376   1.084       .  S
N1373      O1383   1.262       .  A
N1373      O1384   1.261       .  A
N1375      O1381   1.262       .  A
N1375      O1382   1.262       .  A
C1385      C1386   1.403       .  A
C1385      C1390   1.394       .  A
C1385      H1395   1.084       .  S
C1386      C1387   1.410       .  A
C1386      C1391   1.477       .  S
C1387      N1392   1.427       .  S
C1387      C1388   1.396       .  A
C1388      C1389   1.401       .  A
C1388      H1393   1.083       .  S
C1389      C1390   1.408       .  A
C1390      N1394   1.429       .  S
C1391      C1396   1.409       .  A
C1391      C1400   1.402       .  A
N1392      O1407   1.261       .  A
N1392      O1408   1.261       .  A
N1394      O1405   1.262       .  A
N1394      O1406   1.262   1_554  A
C1396      N1401   1.429       .  S
C1396      C1397   1.396       .  A
C1397      C1398   1.407       .  A
C1397      H1402   1.084       .  S
C1398      C1399   1.414       .  A
C1399      N1403   1.429       .  S
C1399      C1400   1.396       .  A
C1400      H1404   1.083       .  S
N1401      O1411   1.262       .  A
N1401      O1412   1.262       .  A
N1403      O1409   1.262       .  A
N1403      O1410   1.262       .  A
C1413      C1414   1.402       .  A
C1413      C1418   1.403       .  A
C1413      H1423   1.084       .  S
C1414      C1415   1.412       .  A
C1414      C1419   1.488       .  S
C1415      N1420   1.428       .  S
C1415      C1416   1.401       .  A
C1416      C1417   1.402       .  A
C1416      H1421   1.083       .  S
C1417      C1418   1.414       .  A
C1418      N1422   1.428       .  S
C1419      C1424   1.412       .  A
C1419      C1428   1.404       .  A
N1420      O1435   1.262       .  A
N1420      O1436   1.261       .  A
N1422      O1433   1.262       .  A
N1422      O1434   1.262       .  A
C1424      N1429   1.428       .  S
C1424      C1425   1.400       .  A
C1425      C1426   1.400       .  A
C1425      H1430   1.083       .  S
C1426      C1427   1.412       .  A
C1427      N1431   1.427       .  S
C1427      C1428   1.405       .  A
C1428      H1432   1.084       .  S
N1429      O1439   1.262       .  A
N1429      O1440   1.261       .  A
N1431      O1437   1.262       .  A
N1431      O1438   1.262       .  A
N1441      C1445   1.351       .  A
N1441      C1442   1.351       .  A
N1441      C2857   1.444       .  S
C1442      C1443   1.382       .  A
C1442      C2829   1.467       .  S
C1443      C1444   1.377       .  A
C1443      H1446   1.082       .  S
C1444      C1445   1.382       .  A
C1444      H1447   1.083       .  S
C1445      C2801   1.463       .  S
N1448      C1452   1.370       .  A
N1448      C1449   1.368       .  A
N1448      C2866   1.443       .  S
C1449      C1450   1.380       .  A
C1449      C2773   1.491       .  S
C1450      C1451   1.367       .  A
C1450      H1453   1.083       .  S
C1451      C1452   1.385       .  A
C1451      H1454   1.083       .  S
C1452      C2745   1.503       .  S
N1455      C1459   1.359       .  A
N1455      C1456   1.358       .  A
N1455      C2726   1.452       .  S
C1456      C1457   1.379       .  A
C1456      C2661   1.464       .  S
C1457      C1458   1.365       .  A
C1457      H1460   1.083       .  S
C1458      C1459   1.381       .  A
C1458      H1461   1.080       .  S
C1459      C2698   1.465       .  S
N1462      C1466   1.364       .  A
N1462      C1463   1.364       .  A
N1462      C2717   1.441       .  S
C1463      C1464   1.381       .  A
C1463      C2605   1.491       .  S
C1464      C1465   1.373       .  A
C1464      H1467   1.082       .  S
C1465      C1466   1.384       .  A
C1465      H1468   1.082       .  S
C1466      C2642   1.493   1_455  S
O1469     Ni1475   1.926       .  S
O1469      C1490   1.271       .  A
O1470     Ni1493   1.900       .  S
O1470      C1479   1.268   1_556  A
O1471     Ni1475   1.900       .  S
O1471     Ni1493   1.902       .  S
O1471     Ni1487   1.907       .  S
O1471      H1494   0.970       .  S
C1472      C2670   1.469       .  S
C1472      O1489   1.275       .  A
C1472      O1481   1.275       .  A
O1473     Ni1492   1.921       .  S
O1473      C1479   1.269   1_556  A
O1474     Ni1492   1.913       .  S
O1474      C1476   1.268       .  A
Ni1475     O1478   1.908       .  S
Ni1475     O1480   1.913       .  S
C1476      C2782   1.481       .  S
C1476      O1486   1.274       .  A
O1477     Ni1493   1.916       .  S
O1477      C1483   1.274       .  A
O1478      C1483   1.276       .  A
O1480      C1482   1.269       .  A
O1481     Ni1492   1.923       .  S
C1482      C2577   1.500       .  S
C1482      O1488   1.278       .  A
C1483      C2549   1.482       .  S
H1484      O1485   0.958       .  S
O1485     Ni1493   1.907       .  S
O1485     Ni1487   1.902       .  S
O1485     Ni1492   1.914       .  S
O1486     Ni1487   1.946       .  S
Ni1487     O1491   1.914       .  S
Ni1487     O1489   1.896       .  S
O1488     Ni1493   1.944       .  S
C1490      C1516   1.470       .  S
C1490      O1491   1.271       .  A
O1495     Ni1501   1.932       .  S
O1495      C1516   1.273       .  A
O1496     Ni1519   1.892       .  S
O1496      C1505   1.265       .  A
O1497     Ni1501   1.912       .  S
O1497     Ni1519   1.896       .  S
O1497     Ni1513   1.898       .  S
O1497      H1520   0.964       .  S
C1498      C2521   1.488       .  S
C1498      O1515   1.271       .  A
C1498      O1507   1.274       .  A
O1499     Ni1518   1.933       .  S
O1499      C1505   1.271       .  A
O1500     Ni1518   1.904       .  S
O1500      C1502   1.270       .  A
Ni1501     O1504   1.922       .  S
Ni1501     O1506   1.920       .  S
C1502      C2493   1.493       .  S
C1502      O1512   1.276       .  A
O1503     Ni1519   1.900       .  S
O1503      C1509   1.274       .  A
O1504      C1509   1.275       .  A
O1506      C1508   1.274       .  A
O1507     Ni1518   1.927       .  S
C1508      C2614   1.507       .  S
C1508      O1514   1.274       .  A
C1509      C2810   1.470       .  S
H1510      O1511   0.970       .  S
O1511     Ni1519   1.917       .  S
O1511     Ni1513   1.915       .  S
O1511     Ni1518   1.923       .  S
O1512     Ni1513   1.941       .  S
Ni1513     O1517   1.903       .  S
Ni1513     O1515   1.902       .  S
O1514     Ni1519   1.945       .  S
C1516      O1517   1.269       .  A
N1521      C1525   1.366       .  A
N1521      C1522   1.367       .  A
N1521      C2465   1.454       .  S
C1522      C1523   1.381       .  A
C1522      C2502   1.488       .  S
C1523      C1524   1.368       .  A
C1523      H1526   1.082       .  S
C1524      C1525   1.382       .  A
C1524      H1527   1.082       .  S
C1525      C2437   1.482       .  S
N1528      C1532   1.358       .  A
N1528      C1529   1.355       .  A
N1528      C2474   1.450       .  S
C1529      C1530   1.380   1_556  A
C1529      C2558   1.465       .  S
C1530      C1531   1.375       .  A
C1530      H1533   1.082       .  S
C1531      C1532   1.384   1_554  A
C1531      H1534   1.082       .  S
C1532      C2409   1.476       .  S
O1535     Ni1541   1.930       .  S
O1535      C1556   1.274       .  A
O1536     Ni1559   1.881       .  S
O1536      C1545   1.265       .  A
O1537     Ni1541   1.906       .  S
O1537     Ni1559   1.887       .  S
O1537     Ni1553   1.902       .  S
O1537      H1560   0.969       .  S
C1538      C2418   1.477       .  S
C1538      O1555   1.273       .  A
C1538      O1547   1.277       .  A
O1539     Ni1558   1.937       .  S
O1539      C1545   1.275       .  A
O1540     Ni1558   1.917       .  S
O1540      C1542   1.271       .  A
Ni1541     O1544   1.917       .  S
Ni1541     O1546   1.931       .  S
C1542      C2381   1.496       .  S
C1542      O1552   1.280       .  A
O1543     Ni1559   1.909       .  S
O1543      C1549   1.274       .  A
O1544      C1549   1.275       .  A
C1545      C1571   1.457       .  S
O1546      C1548   1.273       .  A
O1547     Ni1558   1.942       .  S
C1548      C2353   1.500       .  S
C1548      O1554   1.277       .  A
C1549      C2689   1.464       .  S
H1550      O1551   0.970       .  S
O1551     Ni1559   1.908       .  S
O1551     Ni1553   1.898       .  S
O1551     Ni1558   1.916       .  S
O1552     Ni1553   1.954       .  S
Ni1553     O1557   1.905       .  S
Ni1553     O1555   1.893       .  S
O1554     Ni1559   1.943       .  S
C1556      O1557   1.271       .  A
O1561     Ni1567   1.920       .  S
O1561      C1582   1.269       .  A
O1562     Ni1585   1.891       .  S
O1562      C1571   1.263       .  A
O1563     Ni1567   1.920       .  S
O1563     Ni1585   1.906       .  S
O1563     Ni1579   1.906       .  S
O1563      H1586   0.965       .  S
C1564      C2297   1.477       .  S
C1564      O1581   1.270       .  A
C1564      O1573   1.273       .  A
O1565     Ni1584   1.923       .  S
O1565      C1571   1.270       .  A
O1566     Ni1584   1.913       .  S
O1566      C1568   1.269       .  A
Ni1567     O1570   1.912       .  S
Ni1567     O1572   1.918       .  S
C1568      C2633   1.487       .  S
C1568      O1578   1.274       .  A
O1569     Ni1585   1.898       .  S
O1569      C1575   1.270       .  A
O1570      C1575   1.273       .  A
O1572      C1574   1.272       .  A
O1573     Ni1584   1.928       .  S
C1574      C2446   1.492       .  S
C1574      O1580   1.270       .  A
C1575      C2325   1.458       .  S
H1576      O1577   0.969       .  S
O1577     Ni1585   1.910       .  S
O1577     Ni1579   1.910       .  S
O1577     Ni1584   1.922       .  S
O1578     Ni1579   1.944       .  S
Ni1579     O1583   1.909       .  S
Ni1579     O1581   1.891       .  S
O1580     Ni1585   1.928       .  S
C1582      O1583   1.266       .  A
N1587      C1591   1.357       .  A
N1587      C1588   1.356       .  A
N1587      C2278   1.448       .  S
C1588      C1589   1.381       .  A
C1588      C2306   1.466       .  S
C1589      C1590   1.370       .  A
C1589      H1592   1.082       .  S
C1590      C1591   1.380       .  A
C1590      H1593   1.081       .  S
C1591      C2241   1.466       .  S
N1594      C1598   1.368       .  A
N1594      C1595   1.370       .  A
N1594      C2269   1.449       .  S
C1595      C1596   1.386       .  A
C1595      C2362   1.498       .  S
C1596      C1597   1.371       .  A
C1596      H1599   1.081       .  S
C1597      C1598   1.378       .  A
C1597      H1600   1.083       .  S
C1598      C2213   1.492       .  S
N1601      C1605   1.366       .  A
N1601      C1602   1.366   1_545  A
N1601      C2194   1.440       .  S
C1602      C1603   1.380       .  A
C1602      C2390   1.497       .  S
C1603      C1604   1.373   1_565  A
C1603      H1606   1.081       .  S
C1604      C1605   1.381       .  A
C1604      H1607   1.075       .  S
C1605      C2157   1.500       .  S
N1608      C1612   1.348       .  A
N1608      C1609   1.352   1_545  A
N1608      C2185   1.448       .  S
C1609      C1610   1.381       .  A
C1609      C2334   1.464       .  S
C1610      C1611   1.377   1_565  A
C1610      H1613   1.081       .  S
C1611      C1612   1.381       .  A
C1611      H1614   1.076       .  S
C1612      C2129   1.461       .  S
O1615     Ni1621   1.926       .  S
O1615      C1636   1.272       .  A
O1616     Ni1639   1.891       .  S
O1616      C1625   1.268       .  A
O1617     Ni1621   1.900       .  S
O1617     Ni1639   1.887       .  S
O1617     Ni1633   1.900       .  S
O1617      H1640   0.965       .  S
C1618      C2110   1.470       .  S
C1618      O1635   1.269       .  A
C1618      O1627   1.277       .  A
O1619     Ni1638   1.923       .  S
O1619      C1625   1.270       .  A
O1620     Ni1638   1.914       .  S
O1620      C1622   1.268       .  A
Ni1621     O1624   1.913       .  S
Ni1621     O1626   1.920       .  S
C1622      C2222   1.494       .  S
C1622      O1632   1.276       .  A
O1623     Ni1639   1.909       .  S
O1623      C1629   1.276       .  A
O1624      C1629   1.276       .  A
O1626      C1628   1.271       .  A
O1627     Ni1638   1.929       .  S
C1628      C2166   1.505       .  S
C1628      O1634   1.278       .  A
C1629      C2073   1.460       .  S
H1630      O1631   0.967       .  S
O1631     Ni1639   1.907       .  S
O1631     Ni1633   1.898       .  S
O1631     Ni1638   1.912       .  S
O1632     Ni1633   1.944       .  S
Ni1633     O1637   1.886       .  S
Ni1633     O1635   1.897       .  S
O1634     Ni1639   1.945       .  S
C1636      C1662   1.451       .  S
C1636      O1637   1.264       .  A
O1641     Ni1647   1.920       .  S
O1641      C1662   1.268       .  A
O1642     Ni1665   1.896       .  S
O1642      C1651   1.267       .  A
O1643     Ni1647   1.917       .  S
O1643     Ni1665   1.902       .  S
O1643     Ni1659   1.907       .  S
O1643      H1666   0.960       .  S
C1644      C2138   1.479       .  S
C1644      O1661   1.269       .  A
C1644      O1653   1.275       .  A
O1645     Ni1664   1.923       .  S
O1645      C1651   1.269       .  A
O1646     Ni1664   1.912       .  S
O1646      C1648   1.268       .  A
Ni1647     O1650   1.928       .  S
Ni1647     O1652   1.916       .  S
C1648      C2017   1.493       .  S
C1648      O1658   1.274       .  A
O1649     Ni1665   1.897       .  S
O1649      C1655   1.271       .  A
O1650      C1655   1.276       .  A
O1652      C1654   1.269       .  A
O1653     Ni1664   1.916       .  S
C1654      C2045   1.492       .  S
C1654      O1660   1.277       .  A
C1655      C2250   1.474       .  S
H1656      O1657   0.962       .  S
O1657     Ni1665   1.903       .  S
O1657     Ni1659   1.905       .  S
O1657     Ni1664   1.917       .  S
O1658     Ni1659   1.940       .  S
Ni1659     O1663   1.890       .  S
Ni1659     O1661   1.897       .  S
O1660     Ni1665   1.948       .  S
C1662      O1663   1.262       .  A
N1667      C1671   1.368       .  A
N1667      C1668   1.368       .  A
N1667      C1989   1.450       .  S
C1668      C1669   1.381       .  A
C1668      C1961   1.492       .  S
C1669      C1670   1.367       .  A
C1669      H1672   1.082       .  S
C1670      C1671   1.381       .  A
C1670      H1673   1.082       .  S
C1671      C2026   1.487       .  S
N1674      C1678   1.356       .  A
N1674      C1675   1.354       .  A
N1674      C1998   1.439       .  S
C1675      C1676   1.384   1_556  A
C1675      C2082   1.479       .  S
C1676      C1677   1.377       .  A
C1676      H1679   1.080       .  S
C1677      C1678   1.381   1_554  A
C1677      H1680   1.082       .  S
C1678      C1942   1.477       .  S
N1681      C1685   1.369   1_565  A
N1681      C1682   1.366       .  A
N1681      C1914   1.449       .  S
C1682      C1683   1.382       .  A
C1682      C2586   1.491       .  S
C1683      C1684   1.372   1_565  A
C1683      H1686   1.079       .  S
C1684      C1685   1.380       .  A
C1684      H1687   1.082       .  S
C1685      C1877   1.494       .  S
N1688      C1692   1.358   1_545  A
N1688      C1689   1.358       .  A
N1688      C1905   1.453       .  S
C1689      C1690   1.382       .  A
C1689      C1849   1.475       .  S
C1690      C1691   1.374   1_545  A
C1690      H1693   1.082       .  S
C1691      C1692   1.383       .  A
C1691      H1694   1.082       .  S
C1692      C2530   1.471       .  S
N1695      C1699   1.358       .  A
N1695      C1696   1.357       .  A
N1695      C1830   1.450       .  S
C1696      C1697   1.383       .  A
C1696      C2101   1.472       .  S
C1697      C1698   1.372       .  A
C1697      H1700   1.083       .  S
C1698      C1699   1.382       .  A
C1698      H1701   1.082       .  S
C1699      C1793   1.473       .  S
N1702      C1706   1.364       .  A
N1702      C1703   1.364       .  A
N1702      C1821   1.447       .  S
C1703      C1704   1.380       .  A
C1703      C1765   1.485       .  S
C1704      C1705   1.373       .  A
C1704      H1707   1.082       .  S
C1705      C1706   1.383       .  A
C1705      H1708   1.083       .  S
C1706      C2054   1.484       .  S
O1709     Ni1715   1.917       .  S
O1709      C1730   1.267       .  A
O1710     Ni1733   1.884       .  S
O1710      C1719   1.264       .  A
O1711     Ni1715   1.909       .  S
O1711     Ni1733   1.894       .  S
O1711     Ni1727   1.903       .  S
O1711      H1734   0.963       .  S
C1712      C1933   1.455       .  S
C1712      O1729   1.267       .  A
C1712      O1721   1.275       .  A
O1713     Ni1732   1.932       .  S
O1713      C1719   1.274       .  A
O1714     Ni1732   1.922       .  S
O1714      C1716   1.272       .  A
Ni1715     O1718   1.912       .  S
Ni1715     O1720   1.913       .  S
C1716      C1886   1.501       .  S
C1716      O1726   1.280       .  A
O1717     Ni1733   1.912       .  S
O1717      C1723   1.276       .  A
O1718      C1723   1.274       .  A
C1719      C1745   1.458       .  S
O1720      C1722   1.271       .  A
O1721     Ni1732   1.932       .  S
C1722      C2754   1.503       .  S
C1722      O1728   1.271       .  A
C1723      C1802   1.483       .  S
H1724      O1725   0.962       .  S
O1725     Ni1733   1.909       .  S
O1725     Ni1727   1.903       .  S
O1725     Ni1732   1.913       .  S
O1726     Ni1727   1.956       .  S
Ni1727     O1731   1.905       .  S
Ni1727     O1729   1.892       .  S
O1728     Ni1733   1.938       .  S
C1730      O1731   1.269       .  A
O1735     Ni1741   1.923       .  S
O1735      C1756   1.270       .  A
O1736     Ni1759   1.886       .  S
O1736      C1745   1.263       .  A
O1737     Ni1741   1.912       .  S
O1737     Ni1759   1.901       .  S
O1737     Ni1753   1.912       .  S
O1737      H1760   0.962       .  S
C1738      C2838   1.487       .  S
C1738      O1755   1.271       .  A
C1738      O1747   1.277       .  A
O1739     Ni1758   1.930       .  S
O1739      C1745   1.272       .  A
O1740     Ni1758   1.915       .  S
O1740      C1742   1.268       .  A
Ni1741     O1744   1.920       .  S
Ni1741     O1746   1.913       .  S
C1742      C1774   1.487       .  S
C1742      O1752   1.274       .  A
O1743     Ni1759   1.902       .  S
O1743      C1749   1.270       .  A
O1744      C1749   1.275       .  A
O1746      C1748   1.272       .  A
O1747     Ni1758   1.933       .  S
C1748      C1970   1.500       .  S
C1748      O1754   1.273       .  A
C1749      C1858   1.480       .  S
H1750      O1751   0.972       .  S
O1751     Ni1759   1.908       .  S
O1751     Ni1753   1.909       .  S
O1751     Ni1758   1.915       .  S
O1752     Ni1753   1.943       .  S
Ni1753     O1757   1.900       .  S
Ni1753     O1755   1.905       .  S
O1754     Ni1759   1.937       .  S
C1756      O1757   1.264       .  A
C1761      C1762   1.406       .  A
C1761      C1766   1.402       .  A
C1761      H1771   1.082       .  S
C1762      C1763   1.418       .  A
C1762      C1767   1.501       .  S
C1763      N1768   1.429       .  S
C1763      C1764   1.407       .  A
C1764      C1765   1.403       .  A
C1764      H1769   1.084       .  S
C1765      C1766   1.407       .  A
C1766      N1770   1.427       .  S
C1767      C1772   1.417       .  A
C1767      C1776   1.408       .  A
N1768      O1783   1.262       .  A
N1768      O1784   1.262       .  A
N1770      O1781   1.261       .  A
N1770      O1782   1.262       .  A
C1772      N1777   1.429       .  S
C1772      C1773   1.403       .  A
C1773      C1774   1.403       .  A
C1773      H1778   1.084       .  S
C1774      C1775   1.411       .  A
C1775      N1779   1.429       .  S
C1775      C1776   1.406       .  A
C1776      H1780   1.082       .  S
N1777      O1787   1.262       .  A
N1777      O1788   1.262       .  A
N1779      O1785   1.262       .  A
N1779      O1786   1.261       .  A
C1789      C1790   1.399       .  A
C1789      C1794   1.393       .  A
C1789      H1799   1.084       .  S
C1790      C1791   1.406       .  A
C1790      C1795   1.468       .  S
C1791      N1796   1.427       .  S
C1791      C1792   1.393       .  A
C1792      C1793   1.402       .  A
C1792      H1797   1.082       .  S
C1793      C1794   1.409       .  A
C1794      N1798   1.428       .  S
C1795      C1800   1.404       .  A
C1795      C1804   1.396       .  A
N1796      O1811   1.260       .  A
N1796      O1812   1.261       .  A
N1798      O1809   1.262       .  A
N1798      O1810   1.262       .  A
C1800      N1805   1.427       .  S
C1800      C1801   1.393       .  A
C1801      C1802   1.406       .  A
C1801      H1806   1.083       .  S
C1802      C1803   1.417       .  A
C1803      N1807   1.424       .  S
C1803      C1804   1.395       .  A
C1804      H1808   1.084       .  S
N1805      O1815   1.262       .  A
N1805      O1816   1.262       .  A
N1807      O1813   1.262       .  A
N1807      O1814   1.260       .  A
C1817      C1818   1.401       .  A
C1817      C1822   1.404       .  A
C1817      H1827   1.084       .  S
C1818      C1819   1.410       .  A
C1819      N1824   1.428       .  S
C1819      C1820   1.403       .  A
C1820      C1821   1.404       .  A
C1820      H1825   1.083       .  S
C1821      C1822   1.414       .  A
C1822      N1826   1.428       .  S
C1823      C1828   1.411       .  A
C1823      C1832   1.403       .  A
N1824      O1839   1.262       .  A
N1826      O1837   1.262       .  A
N1826      O1838   1.261       .  A
C1828      N1833   1.428       .  S
C1828      C1829   1.405       .  A
C1829      C1830   1.404       .  A
C1829      H1834   1.083       .  S
C1830      C1831   1.413       .  A
C1831      N1835   1.429       .  S
C1831      C1832   1.404       .  A
C1832      H1836   1.084       .  S
N1833      O1843   1.261       .  A
N1835      O1841   1.262       .  A
N1835      O1842   1.262       .  A
C1845      C1846   1.401       .  A
C1845      C1850   1.397       .  A
C1845      H1855   1.084       .  S
C1846      C1847   1.404       .  A
C1846      C1851   1.468       .  S
C1847      N1852   1.427       .  S
C1847      C1848   1.393       .  A
C1848      C1849   1.402       .  A
C1848      H1853   1.083       .  S
C1849      C1850   1.410       .  A
C1850      N1854   1.429       .  S
C1851      C1856   1.406       .  A
C1851      C1860   1.397       .  A
N1852      O1867   1.262       .  A
N1852      O1868   1.261       .  A
N1854      O1865   1.262       .  A
N1854      O1866   1.262       .  A
C1856      N1861   1.429       .  S
C1856      C1857   1.397       .  A
C1857      C1858   1.406       .  A
C1857      H1862   1.084       .  S
C1858      C1859   1.416       .  A
C1859      N1863   1.429       .  S
C1859      C1860   1.395       .  A
C1860      H1864   1.084       .  S
N1861      O1871   1.262       .  A
N1861      O1872   1.261       .  A
N1863      O1869   1.262       .  A
N1863      O1870   1.262       .  A
C1873      C1874   1.402       .  A
C1873      C1878   1.405       .  A
C1873      H1883   1.084       .  S
C1874      C1875   1.415       .  A
C1874      C1879   1.498       .  S
C1875      N1880   1.428       .  S
C1875      C1876   1.410       .  A
C1876      C1877   1.403       .  A
C1876      H1881   1.084       .  S
C1877      C1878   1.415       .  A
C1878      N1882   1.429       .  S
C1879      C1884   1.412       .  A
C1879      C1888   1.405       .  A
N1880      O1895   1.262       .  A
N1880      O1896   1.262       .  A
N1882      O1893   1.262       .  A
N1882      O1894   1.262       .  A
C1884      N1889   1.428       .  S
C1884      C1885   1.407       .  A
C1885      C1886   1.408       .  A
C1885      H1890   1.084       .  S
C1886      C1887   1.418       .  A
C1887      N1891   1.428       .  S
C1887      C1888   1.409       .  A
C1888      H1892   1.084       .  S
N1889      O1899   1.262       .  A
N1889      O1900   1.261   1_556  A
N1891      O1897   1.262       .  A
N1891      O1898   1.262       .  A
C1901      C1902   1.398       .  A
C1901      C1906   1.403       .  A
C1901      H1911   1.084       .  S
C1902      C1903   1.407   1_565  A
C1903      N1908   1.429       .  S
C1903      C1904   1.403       .  A
C1904      C1905   1.409       .  A
C1904      H1909   1.083       .  S
C1905      C1906   1.417   1_545  A
C1906      N1910   1.427       .  S
C1907      C1912   1.408   1_565  A
C1907      C1916   1.400       .  A
N1908      O1923   1.262       .  A
N1910      O1921   1.261       .  A
N1910      O1922   1.262       .  A
C1912      N1917   1.426       .  S
C1912      C1913   1.399   1_554  A
C1913      C1914   1.402   1_545  A
C1913      H1918   1.082       .  S
C1914      C1915   1.420       .  A
C1915      N1919   1.429       .  S
C1915      C1916   1.404   1_556  A
C1916      H1920   1.084       .  S
N1917      O1927   1.262       .  A
N1919      O1925   1.261       .  A
N1919      O1926   1.263       .  A
C1929      C1930   1.404       .  A
C1929      C1934   1.399       .  A
C1929      H1939   1.084       .  S
C1930      C1931   1.408       .  A
C1930      C1935   1.471       .  S
C1931      N1936   1.428       .  S
C1931      C1932   1.396       .  A
C1932      C1933   1.396       .  A
C1932      H1937   1.084       .  S
C1933      C1934   1.405       .  A
C1934      N1938   1.430       .  S
C1935      C1940   1.406       .  A
C1935      C1944   1.399       .  A
N1936      O1951   1.262   1_556  A
N1936      O1952   1.261       .  A
N1938      O1949   1.262       .  A
N1938      O1950   1.262       .  A
C1940      N1945   1.428       .  S
C1940      C1941   1.396       .  A
C1941      C1942   1.400       .  A
C1941      H1946   1.080       .  S
C1942      C1943   1.412       .  A
C1943      N1947   1.429   1_556  S
C1943      C1944   1.400       .  A
C1944      H1948   1.084       .  S
N1945      O1955   1.262       .  A
N1945      O1956   1.262       .  A
N1947      O1953   1.262       .  A
N1947      O1954   1.262       .  A
C1957      C1958   1.405       .  A
C1957      C1962   1.409       .  A
C1957      H1967   1.084       .  S
C1958      C1959   1.407       .  A
C1958      C1963   1.488       .  S
C1959      N1964   1.429       .  S
C1959      C1960   1.401       .  A
C1960      C1961   1.406       .  A
C1960      H1965   1.084       .  S
C1961      C1962   1.413       .  A
C1962      N1966   1.428       .  S
C1963      C1968   1.409       .  A
C1963      C1972   1.402       .  A
N1964      O1979   1.262       .  A
N1964      O1980   1.262       .  A
N1966      O1977   1.262       .  A
N1966      O1978   1.262       .  A
C1968      N1973   1.429       .  S
C1968      C1969   1.400       .  A
C1969      C1970   1.409       .  A
C1969      H1974   1.084       .  S
C1970      C1971   1.421       .  A
C1971      N1975   1.429       .  S
C1971      C1972   1.408       .  A
C1972      H1976   1.084       .  S
N1973      O1983   1.262       .  A
N1973      O1984   1.261       .  A
N1975      O1981   1.262       .  A
N1975      O1982   1.262       .  A
C1985      C1986   1.405       .  A
C1985      C1990   1.401       .  A
C1985      H1995   1.082       .  S
C1986      C1987   1.417       .  A
C1986      C1991   1.502       .  S
C1987      N1992   1.429       .  S
C1987      C1988   1.405       .  A
C1988      C1989   1.405       .  A
C1988      H1993   1.083       .  S
C1989      C1990   1.412       .  A
C1990      N1994   1.427       .  S
C1991      C1996   1.420       .  A
C1991      C2000   1.411       .  A
N1992      O2007   1.262       .  A
N1992      O2008   1.262       .  A
N1994      O2005   1.262       .  A
N1994      O2006   1.262       .  A
C1996      N2001   1.430       .  S
C1996      C1997   1.398       .  A
C1997      C1998   1.395       .  A
C1997      H2002   1.083       .  S
C1998      C1999   1.403       .  A
C1999      N2003   1.427       .  S
C1999      C2000   1.406       .  A
C2000      H2004   1.081       .  S
N2001      O2011   1.262       .  A
N2001      O2012   1.262       .  A
N2003      O2009   1.261       .  A
N2003      O2010   1.261       .  A
C2013      C2014   1.404       .  A
C2013      C2018   1.403       .  A
C2013      H2023   1.084       .  S
C2014      C2015   1.411       .  A
C2014      C2019   1.492       .  S
C2015      N2020   1.428       .  S
C2015      C2016   1.408       .  A
C2016      C2017   1.408       .  A
C2016      H2021   1.084       .  S
C2017      C2018   1.415       .  A
C2018      N2022   1.429       .  S
C2019      C2024   1.415       .  A
C2019      C2028   1.401       .  A
N2020      O2035   1.262       .  A
N2020      O2036   1.261       .  A
N2022      O2033   1.262       .  A
N2022      O2034   1.262       .  A
C2024      N2029   1.428       .  S
C2024      C2025   1.412       .  A
C2025      C2026   1.405       .  A
C2025      H2030   1.084       .  S
C2026      C2027   1.412       .  A
C2027      N2031   1.430       .  S
C2027      C2028   1.398       .  A
C2028      H2032   1.084       .  S
N2029      O2039   1.262       .  A
N2029      O2040   1.261       .  A
N2031      O2037   1.261       .  A
N2031      O2038   1.261       .  A
C2041      C2042   1.401       .  A
C2041      C2046   1.404       .  A
C2041      H2051   1.084       .  S
C2042      C2043   1.410       .  A
C2042      C2047   1.490       .  S
C2043      N2048   1.428       .  S
C2043      C2044   1.408       .  A
C2044      C2045   1.406       .  A
C2044      H2049   1.084       .  S
C2045      C2046   1.416       .  A
C2046      N2050   1.428       .  S
C2047      C2052   1.410       .  A
C2047      C2056   1.406       .  A
N2048      O2063   1.262       .  A
N2048      O2064   1.262       .  A
N2050      O2061   1.261       .  A
N2050      O2062   1.262       .  A
C2052      N2057   1.428       .  S
C2052      C2053   1.400   1_655  A
C2053      C2054   1.402       .  A
C2053      H2058   1.084       .  S
C2054      C2055   1.411       .  A
C2055      N2059   1.428       .  S
C2055      C2056   1.409   1_455  A
C2056      H2060   1.084       .  S
N2057      O2067   1.262       .  A
N2057      O2068   1.262       .  A
N2059      O2065   1.262       .  A
N2059      O2066   1.262       .  A
C2069      C2070   1.399       .  A
C2069      C2074   1.395       .  A
C2069      H2079   1.084       .  S
C2070      C2071   1.405       .  A
C2070      C2075   1.462       .  S
C2071      N2076   1.429       .  S
C2071      C2072   1.393       .  A
C2072      C2073   1.402       .  A
C2072      H2077   1.085       .  S
C2073      C2074   1.409       .  A
C2074      N2078   1.429       .  S
C2075      C2080   1.401       .  A
C2075      C2084   1.396       .  A
N2076      O2091   1.262       .  A
N2076      O2092   1.261   1_556  A
N2078      O2089   1.262       .  A
N2078      O2090   1.262       .  A
C2080      N2085   1.430       .  S
C2080      C2081   1.397       .  A
C2081      C2082   1.407       .  A
C2081      H2086   1.083       .  S
C2082      C2083   1.413       .  A
C2083      N2087   1.427       .  S
C2083      C2084   1.397       .  A
C2084      H2088   1.084       .  S
N2085      O2095   1.262       .  A
N2085      O2096   1.262   1_556  A
N2087      O2093   1.262       .  A
C2097      C2098   1.401       .  A
C2097      C2102   1.395   1_655  A
C2097      H2107   1.084       .  S
C2098      C2099   1.407       .  A
C2098      C2103   1.472       .  S
C2099      N2104   1.429       .  S
C2099      C2100   1.396   1_655  A
C2100      C2101   1.403       .  A
C2100      H2105   1.084       .  S
C2101      C2102   1.408       .  A
C2102      N2106   1.428       .  S
C2103      C2108   1.407       .  A
C2103      C2112   1.402       .  A
N2104      O2119   1.262       .  A
N2104      O2120   1.262       .  A
N2106      O2117   1.262       .  A
N2106      O2118   1.262       .  A
C2108      N2113   1.428       .  S
C2108      C2109   1.393       .  A
C2109      C2110   1.401       .  A
C2109      H2114   1.084       .  S
C2110      C2111   1.412       .  A
C2111      N2115   1.429       .  S
C2111      C2112   1.400       .  A
C2112      H2116   1.084       .  S
N2113      O2123   1.262       .  A
N2113      O2124   1.261       .  A
N2115      O2121   1.262       .  A
N2115      O2122   1.261       .  A
C2125      C2126   1.399       .  A
C2125      C2130   1.392       .  A
C2125      H2135   1.084       .  S
C2126      C2127   1.406       .  A
C2126      C2131   1.461       .  S
C2127      N2132   1.428       .  S
C2127      C2128   1.392       .  A
C2128      C2129   1.400       .  A
C2128      H2133   1.084       .  S
C2129      C2130   1.408       .  A
C2130      N2134   1.429       .  S
C2131      C2136   1.404       .  A
C2131      C2140   1.397       .  A
N2132      O2147   1.262       .  A
N2132      O2148   1.262       .  A
N2134      O2145   1.262       .  A
N2134      O2146   1.262       .  A
C2136      N2141   1.430       .  S
C2136      C2137   1.393       .  A
C2137      C2138   1.409       .  A
C2137      H2142   1.083       .  S
C2138      C2139   1.417       .  A
C2139      N2143   1.429       .  S
C2139      C2140   1.392       .  A
C2140      H2144   1.085       .  S
N2141      O2151   1.262       .  A
N2141      O2152   1.262       .  A
N2143      O2149   1.262       .  A
N2143      O2150   1.262       .  A
C2153      C2154   1.396       .  A
C2153      C2158   1.401       .  A
C2153      H2163   1.084       .  S
C2154      C2155   1.412       .  A
C2154      C2159   1.491       .  S
C2155      N2160   1.428       .  S
C2155      C2156   1.414       .  A
C2156      C2157   1.409       .  A
C2156      H2161   1.083       .  S
C2157      C2158   1.419       .  A
C2158      N2162   1.428       .  S
C2159      C2164   1.409       .  A
C2159      C2168   1.399       .  A
N2160      O2175   1.262       .  A
N2160      O2176   1.262       .  A
N2162      O2173   1.262       .  A
N2162      O2174   1.261       .  A
C2164      N2169   1.427       .  S
C2164      C2165   1.409       .  A
C2165      C2166   1.410       .  A
C2165      H2170   1.083       .  S
C2166      C2167   1.423       .  A
C2167      N2171   1.429       .  S
C2167      C2168   1.403       .  A
C2168      H2172   1.084       .  S
N2169      O2179   1.262       .  A
N2169      O2180   1.262       .  A
N2171      O2177   1.262       .  A
N2171      O2178   1.262       .  A
C2181      C2182   1.404       .  A
C2181      C2186   1.403       .  A
C2181      H2191   1.082       .  S
C2182      C2183   1.416   1_545  A
C2183      N2188   1.429       .  S
C2183      C2184   1.399       .  A
C2184      C2185   1.400   1_565  A
C2184      H2189   1.084       .  S
C2185      C2186   1.413       .  A
C2186      N2190   1.428       .  S
C2187      C2192   1.414   1_545  A
C2187      C2196   1.405       .  A
N2188      O2203   1.262       .  A
N2188      O2204   1.262       .  A
N2190      O2201   1.262       .  A
N2190      O2202   1.262       .  A
C2192      N2197   1.429       .  S
C2192      C2193   1.399   1_554  A
C2193      C2194   1.401   1_565  A
C2193      H2198   1.084       .  S
C2194      C2195   1.409       .  A
C2195      N2199   1.428       .  S
C2195      C2196   1.402   1_556  A
C2196      H2200   1.083       .  S
N2197      O2207   1.262   1_565  A
N2199      O2205   1.262       .  A
N2199      O2206   1.262       .  A
C2209      C2210   1.403       .  A
C2209      C2214   1.406       .  A
C2209      H2219   1.084       .  S
C2210      C2211   1.413       .  A
C2210      C2215   1.496       .  S
C2211      N2216   1.428       .  S
C2211      C2212   1.407       .  A
C2212      C2213   1.403       .  A
C2212      H2217   1.084       .  S
C2213      C2214   1.415       .  A
C2214      N2218   1.429       .  S
C2215      C2220   1.411       .  A
C2215      C2224   1.405       .  A
N2216      O2231   1.262       .  A
N2216      O2232   1.262       .  A
N2218      O2229   1.262       .  A
N2218      O2230   1.262       .  A
C2220      N2225   1.427       .  S
C2220      C2221   1.404       .  A
C2221      C2222   1.404       .  A
C2221      H2226   1.084       .  S
C2222      C2223   1.417       .  A
C2223      N2227   1.429       .  S
C2223      C2224   1.408       .  A
C2224      H2228   1.084       .  S
N2225      O2235   1.262       .  A
N2225      O2236   1.261       .  A
N2227      O2233   1.262       .  A
N2227      O2234   1.262       .  A
C2237      C2238   1.400       .  A
C2237      C2242   1.395       .  A
C2237      H2247   1.084       .  S
C2238      C2239   1.407       .  A
C2238      C2243   1.466       .  S
C2239      N2244   1.429       .  S
C2239      C2240   1.396       .  A
C2240      C2241   1.402       .  A
C2240      H2245   1.084       .  S
C2241      C2242   1.405       .  A
C2242      N2246   1.427       .  S
C2243      C2248   1.406       .  A
C2243      C2252   1.398       .  A
N2244      O2259   1.262       .  A
N2244      O2260   1.262       .  A
N2246      O2257   1.262       .  A
N2246      O2258   1.262       .  A
C2248      N2253   1.429       .  S
C2248      C2249   1.397       .  A
C2249      C2250   1.405       .  A
C2249      H2254   1.084       .  S
C2250      C2251   1.412       .  A
C2251      N2255   1.428       .  S
C2251      C2252   1.395       .  A
C2252      H2256   1.085       .  S
N2253      O2263   1.262       .  A
N2253      O2264   1.261       .  A
N2255      O2261   1.262       .  A
N2255      O2262   1.262       .  A
C2265      C2266   1.406       .  A
C2265      C2270   1.411       .  A
C2265      H2275   1.084       .  S
C2266      C2267   1.410       .  A
C2266      C2271   1.491       .  S
C2267      N2272   1.429       .  S
C2267      C2268   1.397       .  A
C2268      C2269   1.401       .  A
C2268      H2273   1.080       .  S
C2269      C2270   1.415       .  A
C2270      N2274   1.428       .  S
C2271      C2276   1.413       .  A
C2271      C2280   1.401       .  A
N2272      O2287   1.262       .  A
N2272      O2288   1.262       .  A
N2274      O2285   1.261       .  A
N2274      O2286   1.262       .  A
C2276      N2281   1.428       .  S
C2276      C2277   1.405       .  A
C2277      C2278   1.404       .  A
C2277      H2282   1.083       .  S
C2278      C2279   1.414       .  A
C2279      N2283   1.428       .  S
C2279      C2280   1.401       .  A
C2280      H2284   1.083       .  S
N2281      O2291   1.262       .  A
N2281      O2292   1.262       .  A
N2283      O2289   1.262       .  A
N2283      O2290   1.262       .  A
C2293      C2294   1.397       .  A
C2293      C2298   1.395       .  A
C2293      H2303   1.084       .  S
C2294      C2295   1.407       .  A
C2294      C2299   1.467       .  S
C2295      N2300   1.429       .  S
C2295      C2296   1.392       .  A
C2296      C2297   1.405       .  A
C2296      H2301   1.084       .  S
C2297      C2298   1.417       .  A
C2298      N2302   1.429       .  S
C2299      C2304   1.408       .  A
C2299      C2308   1.399       .  A
N2300      O2315   1.262       .  A
N2300      O2316   1.262       .  A
N2302      O2313   1.262       .  A
N2302      O2314   1.262       .  A
C2304      N2309   1.429       .  S
C2304      C2305   1.394       .  A
C2305      C2306   1.400       .  A
C2305      H2310   1.084       .  S
C2306      C2307   1.410       .  A
C2307      N2311   1.428       .  S
C2307      C2308   1.394       .  A
C2308      H2312   1.084       .  S
N2309      O2319   1.262       .  A
N2309      O2320   1.262       .  A
N2311      O2317   1.262       .  A
N2311      O2318   1.262       .  A
C2321      C2322   1.395       .  A
C2321      C2326   1.390       .  A
C2321      H2331   1.085       .  S
C2322      C2323   1.403       .  A
C2322      C2327   1.453       .  S
C2323      N2328   1.429       .  S
C2323      C2324   1.392       .  A
C2324      C2325   1.403       .  A
C2324      H2329   1.084       .  S
C2325      C2326   1.409       .  A
C2326      N2330   1.427       .  S
C2327      C2332   1.400       .  A
C2327      C2336   1.401       .  A
N2328      O2343   1.262       .  A
N2328      O2344   1.261       .  A
N2330      O2341   1.262       .  A
N2330      O2342   1.262       .  A
C2332      N2337   1.428       .  S
C2332      C2333   1.385       .  A
C2333      C2334   1.400       .  A
C2333      H2338   1.082       .  S
C2334      C2335   1.409       .  A
C2335      N2339   1.429       .  S
C2335      C2336   1.395       .  A
C2336      H2340   1.084       .  S
N2337      O2347   1.262       .  A
N2337      O2348   1.262       .  A
N2339      O2345   1.262       .  A
N2339      O2346   1.262       .  A
C2349      C2350   1.403       .  A
C2349      C2354   1.407       .  A
C2349      H2359   1.084       .  S
C2350      C2351   1.416       .  A
C2350      C2355   1.502       .  S
C2351      N2356   1.428       .  S
C2351      C2352   1.410       .  A
C2352      C2353   1.406       .  A
C2352      H2357   1.084       .  S
C2353      C2354   1.418       .  A
C2354      N2358   1.428       .  S
C2355      C2360   1.418       .  A
C2355      C2364   1.400       .  A
N2356      O2371   1.262       .  A
N2356      O2372   1.262       .  A
N2358      O2369   1.262       .  A
N2358      O2370   1.262       .  A
C2360      N2365   1.428       .  S
C2360      C2361   1.412       .  A
C2361      C2362   1.404       .  A
C2361      H2366   1.083       .  S
C2362      C2363   1.419       .  A
C2363      N2367   1.430       .  S
C2363      C2364   1.403       .  A
C2364      H2368   1.084       .  S
N2365      O2375   1.262       .  A
N2365      O2376   1.262       .  A
N2367      O2373   1.262       .  A
N2367      O2374   1.262       .  A
C2377      C2378   1.403       .  A
C2377      C2382   1.406       .  A
C2377      H2387   1.084       .  S
C2378      C2379   1.411       .  A
C2378      C2383   1.493       .  S
C2379      N2384   1.428       .  S
C2379      C2380   1.407       .  A
C2380      C2381   1.408       .  A
C2380      H2385   1.084       .  S
C2381      C2382   1.417       .  A
C2382      N2386   1.429       .  S
C2383      C2388   1.412       .  A
C2383      C2392   1.401       .  A
N2384      O2399   1.262       .  A
N2384      O2400   1.262       .  A
N2386      O2397   1.262       .  A
N2386      O2398   1.262       .  A
C2388      N2393   1.427       .  S
C2388      C2389   1.409       .  A
C2389      C2390   1.404       .  A
C2389      H2394   1.084       .  S
C2390      C2391   1.417       .  A
C2391      N2395   1.429       .  S
C2391      C2392   1.405       .  A
C2392      H2396   1.084       .  S
N2393      O2403   1.262       .  A
N2393      O2404   1.262       .  A
N2395      O2401   1.262       .  A
N2395      O2402   1.262       .  A
C2405      C2406   1.404       .  A
C2405      C2410   1.398       .  A
C2405      H2415   1.084       .  S
C2406      C2407   1.407       .  A
C2406      C2411   1.476       .  S
C2407      N2412   1.428       .  S
C2407      C2408   1.395       .  A
C2408      C2409   1.401       .  A
C2408      H2413   1.079       .  S
C2409      C2410   1.409       .  A
C2410      N2414   1.429       .  S
C2411      C2416   1.408       .  A
C2411      C2420   1.403       .  A
N2412      O2427   1.262       .  A
N2412      O2428   1.262       .  A
N2414      O2425   1.262   1_556  A
N2414      O2426   1.262       .  A
C2416      N2421   1.429   1_556  S
C2416      C2417   1.394       .  A
C2417      C2418   1.403       .  A
C2417      H2422   1.084       .  S
C2418      C2419   1.413       .  A
C2419      N2423   1.429       .  S
C2419      C2420   1.400       .  A
C2420      H2424   1.084       .  S
N2421      O2431   1.262       .  A
N2421      O2432   1.262       .  A
N2423      O2429   1.262       .  A
N2423      O2430   1.262       .  A
C2433      C2434   1.400       .  A
C2433      C2438   1.399       .  A
C2433      H2443   1.084       .  S
C2434      C2435   1.409       .  A
C2434      C2439   1.482       .  S
C2435      N2440   1.427       .  S
C2435      C2436   1.405       .  A
C2436      C2437   1.403       .  A
C2436      H2441   1.084       .  S
C2437      C2438   1.414       .  A
C2438      N2442   1.430       .  S
C2439      C2444   1.408       .  A
C2439      C2448   1.398       .  A
N2440      O2455   1.261       .  A
N2440      O2456   1.262       .  A
N2442      O2453   1.261       .  A
N2442      O2454   1.262       .  A
C2444      N2449   1.426       .  S
C2444      C2445   1.401       .  A
C2445      C2446   1.405       .  A
C2445      H2450   1.084       .  S
C2446      C2447   1.420       .  A
C2447      N2451   1.428       .  S
C2447      C2448   1.405       .  A
C2448      H2452   1.084       .  S
N2449      O2459   1.261       .  A
N2449      O2460   1.262       .  A
N2451      O2457   1.260       .  A
N2451      O2458   1.261       .  A
C2461      C2462   1.404       .  A
C2461      C2466   1.408       .  A
C2461      H2471   1.084       .  S
C2462      C2463   1.415       .  A
C2462      C2467   1.501       .  S
C2463      N2468   1.427       .  S
C2463      C2464   1.406       .  A
C2464      C2465   1.404       .  A
C2464      H2469   1.083       .  S
C2465      C2466   1.416       .  A
C2466      N2470   1.428       .  S
C2467      C2472   1.412       .  A
C2467      C2476   1.408       .  A
N2468      O2483   1.262       .  A
N2468      O2484   1.262       .  A
N2470      O2481   1.262       .  A
N2470      O2482   1.262       .  A
C2472      N2477   1.427       .  S
C2472      C2473   1.403       .  A
C2473      C2474   1.401       .  A
C2473      H2478   1.084       .  S
C2474      C2475   1.418       .  A
C2475      N2479   1.438       .  S
C2475      C2476   1.414       .  A
C2476      H2480   1.084       .  S
N2477      O2487   1.262       .  A
N2477      O2488   1.262       .  A
N2479      O2485   1.262       .  A
N2479      O2486   1.263       .  A
C2489      C2490   1.409       .  A
C2489      C2494   1.410       .  A
C2489      H2499   1.083       .  S
C2490      C2491   1.417       .  A
C2490      C2495   1.502       .  S
C2491      N2496   1.430       .  S
C2491      C2492   1.398       .  A
C2492      C2493   1.404       .  A
C2492      H2497   1.084       .  S
C2493      C2494   1.414       .  A
C2494      N2498   1.429       .  S
C2495      C2500   1.418       .  A
C2495      C2504   1.404       .  A
N2496      O2511   1.262       .  A
N2496      O2512   1.262       .  A
N2498      O2509   1.262       .  A
N2498      O2510   1.262       .  A
C2500      N2505   1.427       .  S
C2500      C2501   1.407       .  A
C2501      C2502   1.400       .  A
C2501      H2506   1.084       .  S
C2502      C2503   1.414       .  A
C2503      N2507   1.430       .  S
C2503      C2504   1.402       .  A
C2504      H2508   1.083       .  S
N2505      O2515   1.262       .  A
N2505      O2516   1.262       .  A
N2507      O2513   1.262       .  A
N2507      O2514   1.262       .  A
C2517      C2518   1.400       .  A
C2517      C2522   1.398       .  A
C2517      H2527   1.084       .  S
C2518      C2519   1.405       .  A
C2518      C2523   1.473       .  S
C2519      N2524   1.429       .  S
C2519      C2520   1.397       .  A
C2520      C2521   1.410       .  A
C2520      H2525   1.083       .  S
C2521      C2522   1.417       .  A
C2522      N2526   1.429       .  S
C2523      C2528   1.407       .  A
C2523      C2532   1.403       .  A
N2524      O2539   1.262       .  A
N2524      O2540   1.262       .  A
N2526      O2537   1.262       .  A
N2526      O2538   1.262       .  A
C2528      N2533   1.429       .  S
C2528      C2529   1.398       .  A
C2529      C2530   1.404       .  A
C2529      H2534   1.082       .  S
C2530      C2531   1.405       .  A
C2531      N2535   1.428       .  S
C2531      C2532   1.397       .  A
C2532      H2536   1.084       .  S
N2533      O2543   1.262       .  A
N2533      O2544   1.262       .  A
N2535      O2541   1.262       .  A
N2535      O2542   1.262       .  A
C2545      C2546   1.401       .  A
C2545      C2550   1.400       .  A
C2545      H2555   1.084   1_556  S
C2546      C2547   1.401       .  A
C2546      C2551   1.467       .  S
C2547      N2552   1.428       .  S
C2547      C2548   1.390       .  A
C2548      C2549   1.407       .  A
C2548      H2553   1.083       .  S
C2549      C2550   1.418       .  A
C2550      N2554   1.430       .  S
C2551      C2556   1.404       .  A
C2551      C2560   1.403       .  A
N2552      O2567   1.261       .  A
N2552      O2568   1.262       .  A
N2554      O2565   1.262   1_556  A
N2554      O2566   1.262   1_556  A
C2556      N2561   1.429       .  S
C2556      C2557   1.393       .  A
C2557      C2558   1.400       .  A
C2557      H2562   1.084   1_556  S
C2558      C2559   1.405       .  A
C2559      N2563   1.429       .  S
C2559      C2560   1.400       .  A
C2560      H2564   1.084       .  S
N2561      O2571   1.259   1_556  A
N2561      O2572   1.262       .  A
N2563      O2569   1.262       .  A
N2563      O2570   1.261       .  A
C2573      C2574   1.399       .  A
C2573      C2578   1.403       .  A
C2573      H2583   1.084       .  S
C2574      C2575   1.411       .  A
C2574      C2579   1.490       .  S
C2575      N2580   1.428       .  S
C2575      C2576   1.407       .  A
C2576      C2577   1.407       .  A
C2576      H2581   1.084       .  S
C2577      C2578   1.422       .  A
C2578      N2582   1.429       .  S
C2579      C2584   1.413       .  A
C2579      C2588   1.400       .  A
N2580      O2595   1.262       .  A
N2580      O2596   1.262   1_556  A
N2582      O2593   1.262       .  A
N2582      O2594   1.262       .  A
C2584      N2589   1.428       .  S
C2584      C2585   1.408       .  A
C2585      C2586   1.404       .  A
C2585      H2590   1.084       .  S
C2586      C2587   1.415       .  A
C2587      N2591   1.429       .  S
C2587      C2588   1.402       .  A
C2588      H2592   1.084       .  S
N2589      O2599   1.262       .  A
N2589      O2600   1.262   1_556  A
N2591      O2597   1.262       .  A
N2591      O2598   1.261       .  A
C2601      C2602   1.405       .  A
C2601      C2606   1.407       .  A
C2601      H2611   1.084       .  S
C2602      C2603   1.410       .  A
C2602      C2607   1.492       .  S
C2603      N2608   1.428       .  S
C2603      C2604   1.405       .  A
C2604      C2605   1.405       .  A
C2604      H2609   1.084       .  S
C2605      C2606   1.411       .  A
C2606      N2610   1.427       .  S
C2607      C2612   1.408       .  A
C2607      C2616   1.403       .  A
N2608      O2623   1.262       .  A
N2608      O2624   1.261       .  A
N2610      O2621   1.262       .  A
N2610      O2622   1.262       .  A
C2612      N2617   1.428       .  S
C2612      C2613   1.402       .  A
C2613      C2614   1.409       .  A
C2613      H2618   1.083       .  S
C2614      C2615   1.424       .  A
C2615      N2619   1.429       .  S
C2615      C2616   1.412       .  A
C2616      H2620   1.084       .  S
N2617      O2627   1.262       .  A
N2617      O2628   1.262       .  A
N2619      O2625   1.262       .  A
N2619      O2626   1.262       .  A
C2629      C2630   1.404       .  A
C2629      C2634   1.403       .  A
C2629      H2639   1.084       .  S
C2630      C2631   1.410       .  A
C2630      C2635   1.488       .  S
C2631      N2636   1.428       .  S
C2631      C2632   1.405       .  A
C2632      C2633   1.407       .  A
C2632      H2637   1.084       .  S
C2633      C2634   1.411       .  A
C2634      N2638   1.428       .  S
C2635      C2640   1.413       .  A
C2635      C2644   1.399       .  A
N2636      O2651   1.262       .  A
N2636      O2652   1.262       .  A
N2638      O2649   1.262       .  A
N2638      O2650   1.262       .  A
C2640      N2645   1.428       .  S
C2640      C2641   1.413       .  A
C2641      C2642   1.408       .  A
C2641      H2646   1.083   1_655  S
C2642      C2643   1.413       .  A
C2643      N2647   1.428       .  S
C2643      C2644   1.397       .  A
C2644      H2648   1.084       .  S
N2645      O2655   1.262       .  A
N2645      O2656   1.262       .  A
N2647      O2653   1.262       .  A
N2647      O2654   1.262       .  A
C2657      C2658   1.403       .  A
C2657      C2662   1.395       .  A
C2657      H2667   1.084       .  S
C2658      C2659   1.406       .  A
C2658      C2663   1.466       .  S
C2659      N2664   1.429       .  S
C2659      C2660   1.393       .  A
C2660      C2661   1.401       .  A
C2660      H2665   1.084       .  S
C2661      C2662   1.406       .  A
C2662      N2666   1.429       .  S
C2663      C2668   1.408       .  A
C2663      C2672   1.399       .  A
N2664      O2679   1.262       .  A
N2664      O2680   1.262       .  A
N2666      O2677   1.262       .  A
N2666      O2678   1.262       .  A
C2668      N2673   1.428       .  S
C2668      C2669   1.392       .  A
C2669      C2670   1.401       .  A
C2669      H2674   1.084       .  S
C2670      C2671   1.414       .  A
C2671      N2675   1.429       .  S
C2671      C2672   1.395       .  A
C2672      H2676   1.085       .  S
N2673      O2683   1.261       .  A
N2673      O2684   1.262       .  A
N2675      O2681   1.262       .  A
N2675      O2682   1.262       .  A
C2685      C2686   1.399       .  A
C2685      C2690   1.395       .  A
C2685      H2695   1.084       .  S
C2686      C2687   1.404       .  A
C2686      C2691   1.461       .  S
C2687      N2692   1.428       .  S
C2687      C2688   1.394       .  A
C2688      C2689   1.403       .  A
C2688      H2693   1.084       .  S
C2689      C2690   1.409       .  A
C2690      N2694   1.429       .  S
C2691      C2696   1.403       .  A
C2691      C2700   1.400       .  A
N2692      O2707   1.262       .  A
N2692      O2708   1.262       .  A
N2694      O2705   1.262       .  A
N2694      O2706   1.262       .  A
C2696      N2701   1.428       .  S
C2696      C2697   1.392       .  A
C2697      C2698   1.402   1_655  A
C2697      H2702   1.084   1_655  S
C2698      C2699   1.409   1_455  A
C2699      N2703   1.429   1_655  S
C2699      C2700   1.396       .  A
C2700      H2704   1.084       .  S
N2701      O2711   1.262       .  A
N2701      O2712   1.262       .  A
N2703      O2709   1.262       .  A
N2703      O2710   1.262       .  A
C2713      C2714   1.401       .  A
C2713      C2718   1.401       .  A
C2713      H2723   1.084       .  S
C2714      C2715   1.409       .  A
C2715      N2720   1.429       .  S
C2715      C2716   1.398       .  A
C2716      C2717   1.403       .  A
C2716      H2721   1.083       .  S
C2717      C2718   1.413       .  A
C2718      N2722   1.428       .  S
C2719      C2724   1.407       .  A
C2719      C2728   1.398       .  A
N2720      O2735   1.262       .  A
N2722      O2733   1.262       .  A
N2722      O2734   1.261       .  A
C2724      N2729   1.429       .  S
C2724      C2725   1.403       .  A
C2725      C2726   1.409       .  A
C2725      H2730   1.083       .  S
C2726      C2727   1.418       .  A
C2727      N2731   1.427       .  S
C2727      C2728   1.403       .  A
C2728      H2732   1.084       .  S
N2729      O2739   1.262       .  A
N2731      O2737   1.261       .  A
N2731      O2738   1.262   1_455  A
C2741      C2742   1.405       .  A
C2741      C2746   1.411       .  A
C2741      H2751   1.084       .  S
C2742      C2743   1.408       .  A
C2742      C2747   1.492       .  S
C2743      N2748   1.429       .  S
C2743      C2744   1.401       .  A
C2744      C2745   1.410       .  A
C2744      H2749   1.084       .  S
C2745      C2746   1.417       .  A
C2746      N2750   1.427       .  S
C2747      C2752   1.409       .  A
C2747      C2756   1.404       .  A
N2748      O2763   1.262       .  A
N2748      O2764   1.262       .  A
N2750      O2761   1.261       .  A
N2750      O2762   1.262       .  A
C2752      N2757   1.428       .  S
C2752      C2753   1.399       .  A
C2753      C2754   1.408       .  A
C2753      H2758   1.084       .  S
C2754      C2755   1.421       .  A
C2755      N2759   1.429       .  S
C2755      C2756   1.412       .  A
C2756      H2760   1.084       .  S
N2757      O2767   1.262       .  A
N2757      O2768   1.261       .  A
N2759      O2765   1.262       .  A
N2759      O2766   1.262       .  A
C2769      C2770   1.409       .  A
C2769      C2774   1.412       .  A
C2769      H2779   1.083       .  S
C2770      C2771   1.410       .  A
C2770      C2775   1.497       .  S
C2771      N2776   1.428       .  S
C2771      C2772   1.399       .  A
C2772      C2773   1.404       .  A
C2772      H2777   1.084       .  S
C2773      C2774   1.414       .  A
C2774      N2778   1.428       .  S
C2775      C2780   1.414       .  A
C2775      C2784   1.408       .  A
N2776      O2791   1.262       .  A
N2776      O2792   1.262       .  A
N2778      O2789   1.262       .  A
N2778      O2790   1.262       .  A
C2780      N2785   1.428       .  S
C2780      C2781   1.406       .  A
C2781      C2782   1.401       .  A
C2781      H2786   1.084       .  S
C2782      C2783   1.409       .  A
C2783      N2787   1.430       .  S
C2783      C2784   1.408       .  A
C2784      H2788   1.084       .  S
N2785      O2795   1.262       .  A
N2785      O2796   1.261       .  A
N2787      O2793   1.262       .  A
N2787      O2794   1.262       .  A
C2797      C2798   1.400       .  A
C2797      C2802   1.395       .  A
C2797      H2807   1.084       .  S
C2798      C2799   1.409       .  A
C2798      C2803   1.467       .  S
C2799      N2804   1.429       .  S
C2799      C2800   1.395       .  A
C2800      C2801   1.398       .  A
C2800      H2805   1.084       .  S
C2801      C2802   1.408       .  A
C2802      N2806   1.428       .  S
C2803      C2808   1.407       .  A
C2803      C2812   1.398       .  A
N2804      O2819   1.262       .  A
N2804      O2820   1.261       .  A
N2806      O2817   1.262       .  A
N2806      O2818   1.262       .  A
C2808      N2813   1.429       .  S
C2808      C2809   1.396       .  A
C2809      C2810   1.403       .  A
C2809      H2814   1.084       .  S
C2810      C2811   1.414       .  A
C2811      N2815   1.430       .  S
C2811      C2812   1.394       .  A
C2812      H2816   1.084       .  S
N2813      O2823   1.262       .  A
N2813      O2824   1.261       .  A
N2815      O2821   1.262       .  A
N2815      O2822   1.262       .  A
C2825      C2826   1.400       .  A
C2825      C2830   1.397       .  A
C2825      H2835   1.084       .  S
C2826      C2827   1.406       .  A
C2826      C2831   1.468       .  S
C2827      N2832   1.428       .  S
C2827      C2828   1.395       .  A
C2828      C2829   1.399       .  A
C2828      H2833   1.084       .  S
C2829      C2830   1.408       .  A
C2830      N2834   1.429       .  S
C2831      C2836   1.403       .  A
C2831      C2840   1.398       .  A
N2832      O2847   1.262       .  A
N2832      O2848   1.262       .  A
N2834      O2845   1.262       .  A
N2834      O2846   1.262       .  A
C2836      N2841   1.429       .  S
C2836      C2837   1.395       .  A
C2837      C2838   1.410       .  A
C2837      H2842   1.083       .  S
C2838      C2839   1.417       .  A
C2839      N2843   1.428       .  S
C2839      C2840   1.399       .  A
C2840      H2844   1.084       .  S
N2841      O2851   1.262       .  A
N2841      O2852   1.262       .  A
N2843      O2849   1.262       .  A
N2843      O2850   1.262       .  A
C2853      C2854   1.403       .  A
C2853      C2858   1.402       .  A
C2853      H2863   1.083       .  S
C2854      C2855   1.414       .  A
C2854      C2859   1.490       .  S
C2855      N2860   1.429       .  S
C2855      C2856   1.400       .  A
C2856      C2857   1.400       .  A
C2856      H2861   1.083       .  S
C2857      C2858   1.411       .  A
C2858      N2862   1.427       .  S
C2859      C2864   1.414       .  A
C2859      C2868   1.402       .  A
N2860      O2875   1.262       .  A
N2860      O2876   1.262       .  A
N2862      O2873   1.262       .  A
N2862      O2874   1.262       .  A
C2864      N2869   1.428       .  S
C2864      C2865   1.401       .  A
C2865      C2866   1.401       .  A
C2865      H2870   1.083       .  S
C2866      C2867   1.414       .  A
C2867      N2871   1.428       .  S
C2867      C2868   1.402       .  A
C2868      H2872   1.083       .  S
N2869      O2879   1.262       .  A
N2869      O2880   1.262       .  A
N2871      O2877   1.261       .  A
N2871      O2878   1.262       .  A
