geometry optimzed in LAMMPS
_audit_creation_date              2020-12-01 
_audit_creation_method            'lammps2cif' 
_symmetry_space_group_name_H-M    'P1' 
_symmetry_Int_Tables_number       1 
_symmetry_cell_setting            triclinic 
loop_ 
_symmetry_equiv_pos_as_xyz 
  x,y,z 
_cell_length_a                    29.34878812 
_cell_length_b                    29.05863802855991 
_cell_length_c                    21.6055372787811 
_cell_angle_alpha                 88.16783698171156 
_cell_angle_beta                  93.90926171352264 
_cell_angle_gamma                 120.35580234189257 
loop_ 
_atom_site_label 
_atom_site_type_symbol 
_atom_site_fract_x 
_atom_site_fract_y 
_atom_site_fract_z 
_atom_site_charge 
C1          C  0.66536864  0.31733907  0.13201701     0.30100
C2          C  0.65926370  0.31416989  0.00450329     0.30100
C3          C  0.69318196  0.29124466  0.10226950    -0.06100
C4          C  0.60954488  0.28785855  0.10047359    -0.06900
C5          C  0.69037365  0.37220999  0.09904971    -0.06800
C6          C  0.68980089  0.28958110  0.03771171    -0.06100
C7          C  0.60618681  0.28635659  0.03589956    -0.06900
C8          C  0.68590625  0.37023867  0.03412295    -0.06800
C9          C  0.71555791  0.26388403  0.02013492    -0.32200
N10         N  0.73432882  0.24977417  0.07212560     0.14300
C11         C  0.72159640  0.26694539  0.12232014    -0.32200
H12         H  0.73244283  0.26190798  0.16983356     0.16300
C13         C  0.55306791  0.25994213  0.01765282    -0.31100
N14         N  0.52475759  0.24437525  0.06894921     0.13100
C15         C  0.55867848  0.26167596  0.11993629    -0.31100
C16         C  0.70509011  0.42177162  0.01337307    -0.31400
N17         N  0.72365641  0.45518513  0.06300159     0.13600
H18         H  0.70512418  0.43432719  0.96574526     0.16200
C19         C  0.71585110  0.42560340  0.11536655    -0.31400
H20         H  0.72736495  0.44219428  0.16170593     0.16200
H21         H  0.54717910  0.25455437  0.16739913     0.16200
H22         H  0.71888931  0.25459251  0.97312830     0.16300
H23         H  0.53556282  0.25252082  0.97073293     0.16200
C24         C  0.67328499  0.34909397  0.50434061     0.30100
C25         C  0.67686579  0.34817830  0.63173828     0.30100
C26         C  0.70197017  0.32171582  0.53684130    -0.06100
C27         C  0.70235566  0.40424450  0.53650031    -0.06900
C28         C  0.61951915  0.32140077  0.53385716    -0.06800
C29         C  0.70371415  0.32146170  0.60145025    -0.06100
C30         C  0.70238278  0.40381761  0.60103135    -0.06900
C31         C  0.62090017  0.32057861  0.59853014    -0.06800
C32         C  0.73190137  0.29696399  0.62208015    -0.32200
N33         N  0.74714809  0.28208350  0.57198237     0.14300
C34         C  0.72978790  0.29772447  0.51999001    -0.32200
H35         H  0.73844653  0.29323996  0.47347308     0.16300
C36         C  0.72454489  0.45632447  0.61998204    -0.31100
N37         N  0.74096972  0.48822408  0.56943907     0.13100
C38         C  0.72865382  0.45707139  0.51857773    -0.31100
C39         C  0.56873449  0.29516735  0.61442870    -0.31400
N40         N  0.53638825  0.28003143  0.56176674     0.13600
H41         H  0.55479772  0.28862129  0.66070369     0.16200
C42         C  0.56708374  0.29639154  0.51228523    -0.31400
H43         H  0.55233561  0.28954448  0.46417800     0.16200
H44         H  0.73757822  0.47229501  0.47196161     0.16200
H45         H  0.74037738  0.29019608  0.66995989     0.16300
H46         H  0.72830247  0.47054520  0.66678136     0.16200
C47         C  0.32614859  0.65096401  0.01558862     0.30100
C48         C  0.32846183  0.65530957  0.88841645     0.30100
C49         C  0.30033566  0.68035550  0.98181146    -0.06100
C50         C  0.38122716  0.67838047  0.98942590    -0.06900
C51         C  0.29709351  0.59674699  0.98148995    -0.06800
C52         C  0.30243944  0.68327753  0.91756891    -0.06100
C53         C  0.38303368  0.68010120  0.92488464    -0.06900
C54         C  0.29935942  0.59886740  0.91705963    -0.06800
C55         C  0.27883696  0.71198056  0.89600794    -0.32200
N56         N  0.26116118  0.72519271  0.94516179     0.14300
C57         C  0.27321739  0.70523711  0.99738268    -0.32200
H58         H  0.26298753  0.70900603  0.04337237     0.16300
C59         C  0.43617206  0.70551433  0.91290424    -0.31100
N60         N  0.46573254  0.72161365  0.96748654     0.13100
C61         C  0.43250125  0.70497710  0.01447552    -0.31100
C62         C  0.26997106  0.54694007  0.89539307    -0.31400
N63         N  0.24813015  0.51424540  0.94415099     0.13600
H64         H  0.26337493  0.53375710  0.84766510     0.16200
C65         C  0.26363181  0.54401547  0.99668431    -0.31400
H66         H  0.25023801  0.52827969  0.04213095     0.16200
H67         H  0.44475023  0.71224024  0.06327919     0.16200
H68         H  0.27436012  0.72198327  0.84819303     0.16300
H69         H  0.45292056  0.71275987  0.86819416     0.16200
C70         C  0.33604120  0.68724307  0.38797346     0.30100
C71         C  0.34672831  0.68837805  0.51537235     0.30100
C72         C  0.31951311  0.72246986  0.42136647    -0.06100
C73         C  0.30294123  0.63284110  0.42010776    -0.06900
C74         C  0.39200295  0.70586895  0.41701283    -0.06800
C75         C  0.32594556  0.72340308  0.48585455    -0.06100
C76         C  0.30913872  0.63361440  0.48481751    -0.06900
C77         C  0.39734824  0.70573181  0.48150563    -0.06800
C78         C  0.30369790  0.75104499  0.50787275    -0.32200
N79         N  0.28278905  0.76628290  0.45895344     0.14300
C80         C  0.29106831  0.74788972  0.40618189    -0.32200
H81         H  0.27586360  0.75131741  0.36035410     0.16300
C82         C  0.28231294  0.58153095  0.50441770    -0.31100
N83         N  0.25797599  0.54914901  0.45443002     0.13100
C84         C  0.27018967  0.58005203  0.40263582    -0.31100
C85         C  0.44867587  0.71846992  0.49746808    -0.31400
N86         N  0.47509218  0.72851955  0.44492161     0.13600
H87         H  0.46596373  0.72078190  0.54387576     0.16200
C88         C  0.44070836  0.72066188  0.39543214    -0.31400
H89         H  0.45025857  0.72481433  0.34728848     0.16200
H90         H  0.25647372  0.56506312  0.35584969     0.16200
H91         H  0.30036932  0.75696826  0.55620091     0.16300
H92         H  0.28244266  0.56775687  0.55148424     0.16200
O93         O  0.06740754  0.96541618  0.06827677    -0.88300
C94         C  0.07597428  0.05899692  0.92053764     0.87800
Mg95       Mg  0.00808681  0.88308956  0.07009377     1.58100
O96         O  0.01959048  0.07823210  0.04866927    -0.88000
O97         O  0.08928204  0.03679916  0.12260217    -0.75300
C98         C  0.77962991  0.86870047  0.97636641     0.92800
O99         O  0.04099089  0.93331777  0.92361847    -0.75200
O100        O  0.80428874  0.84339470  0.97216930    -0.82700
Mg101      Mg  0.11190538  0.99309747  0.98596224     1.58000
C102        C  0.88547264  0.09183745  0.02422651     0.92700
O103        O  0.18989591  0.05401983  0.03950962    -0.80900
H104        H  0.02558910  0.09817675  0.13776371    -0.06300
C105        C  0.91448435  0.98246283  0.91344831     0.87700
O106        O  0.95439126  0.90111865  0.12484733    -0.75400
O107        O  0.08679127  0.05080115  0.97457688    -0.88200
O108        O  0.93160620  0.11190548  0.00428234    -0.81000
C109        C  0.09876327  0.19962767  0.96578670     0.92800
C110        C  0.21284960  0.10253168  0.05768622     0.92700
Mg111      Mg  0.88200284  0.97836173  0.04644888     1.58000
O112        O  0.80298814  0.91714278  0.99484886    -0.80900
O113        O  0.95306552  0.03804772  0.10841179    -0.75200
O114        O  0.12171974  0.17561992  0.99048413    -0.81000
O115        O  0.13676896  0.92978177  0.99411052    -0.82700
O116        O  0.87168459  0.79349865  0.03734968    -0.81000
C117        C  0.00058911  0.07319795  0.09944516     0.87100
O118        O  0.90637787  0.91970601  0.05780165    -0.88200
O119        O  0.92666191  0.00595438  0.96381765    -0.88300
O120        O  0.90368375  0.93449132  0.90934973    -0.75300
Mg121      Mg  0.10169591  0.10233362  0.05227232     1.58000
O122        O  0.04865466  0.17653281  0.95737513    -0.82700
H123        H  0.07838786  0.96751552  0.16068439    -0.06400
O124        O  0.97396424  0.89317628  0.98272457    -0.88000
H125        H  0.96847785  0.87348919  0.89361837    -0.06300
H126        H  0.89755433  0.91613583  0.14908301    -0.06400
C127        C  0.99327953  0.89833343  0.93212360     0.87100
C128        C  0.07905388  0.98895915  0.11863662     0.87700
C129        C  0.91792913  0.91190677  0.11173136     0.87700
H130        H  0.91509416  0.00401308  0.87151544    -0.06400
O131        O  0.04001021  0.07039228  0.90697627    -0.75400
Mg132      Mg  0.89135688  0.86862560  0.97886813     1.58000
H133        H  0.09664021  0.05475470  0.88352645    -0.06400
C134        C  0.10879420  0.87995399  0.00495519     0.92700
O135        O  0.94552962  0.79578426  0.07456873    -0.82700
C136        C  0.89562088  0.77090854  0.06339815     0.92800
O137        O  0.18812139  0.12785400  0.05983373    -0.82700
Mg138      Mg  0.98612405  0.08851141  0.96127730     1.58200
O139        O  0.06261745  0.85958924  0.02518433    -0.81000
O140        O  0.85778800  0.04233962  0.03710192    -0.82700
O141        O  0.97490114  0.08388117  0.42639078    -0.88300
C142        C  0.08722995  0.10119390  0.56163469     0.87800
Mg143      Mg  0.89376602  0.02226623  0.42752000     1.58100
O144        O  0.09308816  0.04119522  0.42491723    -0.88000
O145        O  0.03928183  0.10576467  0.36498580    -0.75300
C146        C  0.89691118  0.79931981  0.50123627     0.92800
O147        O  0.95990443  0.05889263  0.57188599    -0.75200
O148        O  0.86869927  0.82035944  0.50871485    -0.82700
Mg149      Mg  0.01077973  0.13035329  0.51052968     1.58000
C150        C  0.10768579  0.90514258  0.43917894     0.92700
O151        O  0.06453484  0.20936074  0.45995014    -0.80900
H152        H  0.10268435  0.04442457  0.33385776    -0.06300
C153        C  0.01288152  0.93864574  0.56232738     0.87700
O154        O  0.90741140  0.96885190  0.36434342    -0.75400
O155        O  0.07120538  0.10855032  0.51001727    -0.88200
O156        O  0.13225563  0.95290139  0.46014114    -0.81000
C157        C  0.22230193  0.12721865  0.49733855     0.92800
C158        C  0.10958701  0.23329887  0.43622116     0.92700
Mg159      Mg  0.99480462  0.90289033  0.42731606     1.58000
O160        O  0.94280070  0.82598192  0.48025619    -0.80900
O161        O  0.04612174  0.97226960  0.36385507    -0.75200
O162        O  0.19462456  0.14747131  0.47595909    -0.81000
O163        O  0.94509046  0.15222113  0.51404851    -0.82700
O164        O  0.81152132  0.88468302  0.45593870    -0.81000
C165        C  0.08226419  0.02039387  0.37297344     0.87100
O166        O  0.93471557  0.92453592  0.42483104    -0.88200
O167        O  0.03126698  0.95062299  0.51060281    -0.88300
O168        O  0.96515222  0.92490796  0.57034597    -0.75300
Mg169      Mg  0.11315461  0.12306839  0.42604296     1.58000
O170        O  0.20137757  0.07729155  0.50804769    -0.82700
H171        H  0.96648038  0.09183973  0.33483918    -0.06400
O172        O  0.91319035  0.99024126  0.51018379    -0.88000
H173        H  0.90474521  0.98591293  0.60154635    -0.06300
H174        H  0.92162140  0.91243428  0.33317174    -0.06400
C175        C  0.92440186  0.01054118  0.56244438     0.87100
C176        C  0.99249389  0.09453170  0.37420387     0.87700
C177        C  0.92073613  0.93368581  0.37283716     0.87700
H178        H  0.03854039  0.94142415  0.60210947    -0.06400
O179        O  0.10165674  0.06689117  0.57016668    -0.75400
Mg180      Mg  0.89160071  0.90796598  0.50795217     1.58000
H181        H  0.08751915  0.12347641  0.60094625    -0.06400
C182        C  0.89494164  0.12337481  0.50421143     0.92700
O183        O  0.80742629  0.95661048  0.42530211    -0.82700
C184        C  0.78553854  0.90647568  0.43392292     0.92800
O185        O  0.13448184  0.20955428  0.42449596    -0.82700
Mg186      Mg  0.11365598  0.01120916  0.50888024     1.58200
O187        O  0.87357718  0.07665452  0.48079698    -0.81000
O188        O  0.05775278  0.87951669  0.42803230    -0.82700
C189        C  0.22577183  0.49180449  0.45722187    -0.05200
C190        C  0.19724940  0.46754544  0.50997397    -0.05100
C191        C  0.16713217  0.41221254  0.51466549    -0.23300
C192        C  0.16499061  0.37975511  0.46679684     0.19000
C193        C  0.19356676  0.40329784  0.41345846     0.16200
C194        C  0.22341037  0.45925370  0.40869885    -0.18300
C195        C  0.19255830  0.37032775  0.36659960    -0.20100
C196        C  0.16438134  0.31475606  0.37322796    -0.12700
C197        C  0.13554416  0.29132596  0.42588383     0.04000
C198        C  0.13550533  0.32408639  0.47210564    -0.24800
H199        H  0.19780506  0.49151216  0.54763870     0.09100
H200        H  0.14568911  0.39479250  0.55598321     0.12700
H201        H  0.24585965  0.47733874  0.36823397     0.12600
H202        H  0.21438141  0.38750809  0.32548982     0.12400
H203        H  0.16519292  0.29001198  0.33737254     0.12900
H204        H  0.11426217  0.30619583  0.51348856     0.14900
C205        C  0.72774620  0.87276736  0.42089491    -0.05200
C206        C  0.70141777  0.88687705  0.37413790    -0.05100
C207        C  0.64624252  0.85772182  0.36557794    -0.23300
C208        C  0.61637021  0.81493451  0.40488782     0.19000
C209        C  0.64253395  0.79994556  0.45152266     0.16200
C210        C  0.69804589  0.82826337  0.45839559    -0.18300
C211        C  0.61268536  0.75840169  0.49222933    -0.20100
C212        C  0.55751940  0.73354135  0.48849743    -0.12700
C213        C  0.53111732  0.74902882  0.44331829     0.04000
C214        C  0.56084046  0.78868631  0.40034324    -0.24800
H215        H  0.72356788  0.92088656  0.34459756     0.09100
H216        H  0.62687442  0.86977303  0.32961335     0.12700
H217        H  0.71797828  0.81745815  0.49506505     0.12600
H218        H  0.63203622  0.74634432  0.52821496     0.12400
H219        H  0.53538350  0.70271732  0.52168515     0.12900
H220        H  0.54092549  0.80141092  0.36594633     0.14900
C221        C  0.13752902  0.87735101  0.43100533    -0.05200
C222        C  0.12111846  0.83827565  0.38471715    -0.05100
C223        C  0.14700007  0.80925649  0.38001749    -0.23300
C224        C  0.18892577  0.81783753  0.42255315     0.19000
C225        C  0.20514682  0.85646418  0.46986634     0.16200
C226        C  0.17996826  0.88651442  0.47316518    -0.18300
C227        C  0.24580380  0.86388083  0.51366437    -0.20100
C228        C  0.27061036  0.83379767  0.51031236    -0.12700
C229        C  0.25570616  0.79596862  0.46280221     0.04000
C230        C  0.21454670  0.78815807  0.41901164    -0.24800
H231        H  0.08817560  0.83018186  0.35213944     0.09100
H232        H  0.13374685  0.77960131  0.34365960     0.12700
H233        H  0.19212894  0.91569348  0.50991873     0.12600
H234        H  0.25849967  0.89302833  0.55052007     0.12400
H235        H  0.30234622  0.84091832  0.54429442     0.12900
H236        H  0.20189314  0.75846867  0.38284181     0.14900
C237        C  0.13163620  0.25674801  0.94959311    -0.05200
C238        C  0.18561252  0.27842904  0.94003418    -0.05100
C239        C  0.21855941  0.33331536  0.93230931    -0.23300
C240        C  0.19845506  0.36779213  0.93544687     0.19000
C241        C  0.14394312  0.34643342  0.94357051     0.16200
C242        C  0.11069187  0.29095897  0.94937078    -0.18300
C243        C  0.12421609  0.38117121  0.94860003    -0.20100
C244        C  0.15850246  0.43644855  0.94792839    -0.12700
C245        C  0.21264119  0.45773364  0.94071705     0.04000
C246        C  0.23229072  0.42334359  0.93311287    -0.24800
H247        H  0.20262438  0.25293567  0.93972813     0.09100
H248        H  0.26018644  0.34896782  0.92601016     0.12700
H249        H  0.06922067  0.27479581  0.95727208     0.12600
H250        H  0.08260924  0.36563092  0.95490217     0.12400
H251        H  0.14307511  0.46281651  0.95370257     0.12900
H252        H  0.27425089  0.44006366  0.92792770     0.14900
C253        C  0.72162494  0.83994092  0.96209085    -0.05200
C254        C  0.69801371  0.79690148  0.92015554    -0.05100
C255        C  0.64294681  0.76637618  0.91080797    -0.23300
C256        C  0.61034643  0.77741425  0.94446709     0.19000
C257        C  0.63364197  0.82071735  0.98667058     0.16200
C258        C  0.68906686  0.85233113  0.99427012    -0.18300
C259        C  0.60109027  0.83065200  0.02190932    -0.20100
C260        C  0.54610049  0.79760056  0.01607207    -0.12700
C261        C  0.52249912  0.75469328  0.97399328     0.04000
C262        C  0.55492502  0.74521255  0.93769834    -0.24800
H263        H  0.72225203  0.78656160  0.89491639     0.09100
H264        H  0.62585052  0.73330764  0.87836588     0.12700
H265        H  0.70680647  0.88494484  0.02741359     0.12600
H266        H  0.61817513  0.86356129  0.05457589     0.12400
H267        H  0.52176298  0.80597403  0.04381720     0.12900
H268        H  0.53696714  0.71197749  0.90544827     0.14900
C269        C  0.23551872  0.75644545  0.94363362    -0.05200
C270        C  0.25291103  0.80178108  0.90570050    -0.05100
C271        C  0.23135214  0.83503945  0.90904534    -0.23300
C272        C  0.19154796  0.82311015  0.94989900     0.19000
C273        C  0.17245323  0.77633847  0.98623448     0.16200
C274        C  0.19468367  0.74364701  0.98312871    -0.18300
C275        C  0.13189531  0.76329454  0.02593620    -0.20100
C276        C  0.11093965  0.79666407  0.03062828    -0.12700
C277        C  0.13051385  0.84427930  0.99645774     0.04000
C278        C  0.17085223  0.85720039  0.95570796    -0.24800
H279        H  0.28451835  0.81246914  0.87510740     0.09100
H280        H  0.24631569  0.87042034  0.88041287     0.12700
H281        H  0.18052326  0.70833272  0.01179705     0.12600
H282        H  0.11663368  0.72745606  0.05381902     0.12400
H283        H  0.08001159  0.78569150  0.06234778     0.12900
H284        H  0.18592476  0.89346502  0.92860484     0.14900
C285        C  0.35156557  0.69095253  0.58627213    -0.05200
C286        C  0.39731775  0.73143548  0.61801393    -0.05100
C287        C  0.40227873  0.73322378  0.68287045    -0.23300
C288        C  0.36073473  0.69579247  0.71754293     0.19000
C289        C  0.31267432  0.65856952  0.68633568     0.16200
C290        C  0.30795179  0.65738094  0.62126598    -0.18300
C291        C  0.26975188  0.62384790  0.72078443    -0.20100
C292        C  0.27532020  0.62406501  0.78542533    -0.12700
C293        C  0.32447777  0.65726607  0.81744002     0.04000
C294        C  0.36592570  0.69571709  0.78274954    -0.24800
H295        H  0.42930934  0.76221257  0.59287857     0.09100
H296        H  0.43871041  0.76385417  0.70588074     0.07700
H297        H  0.26996548  0.63051621  0.59811984     0.12600
H298        H  0.23176829  0.59645332  0.69776110     0.12400
H299        H  0.24071589  0.59809173  0.81049339     0.12900
H300        H  0.40142979  0.72706728  0.80574103     0.14900
C301        C  0.32815130  0.64988486  0.08663549    -0.05200
C302        C  0.33102945  0.60874319  0.11981830    -0.05100
C303        C  0.33302304  0.60765461  0.18473776    -0.23300
C304        C  0.33386830  0.64862369  0.21820936     0.19000
C305        C  0.33543224  0.69225633  0.18583702     0.16200
C306        C  0.33436622  0.69342892  0.12073945    -0.18300
C307        C  0.33938033  0.73473898  0.21917151    -0.20100
C308        C  0.33971929  0.73308207  0.28385169    -0.12700
C309        C  0.33408574  0.68808405  0.31696955     0.04000
C310        C  0.33448517  0.64739875  0.28342629    -0.24800
H311        H  0.33256944  0.57754904  0.09579399     0.09100
H312        H  0.33397897  0.57481064  0.20870185     0.12700
H313        H  0.33938510  0.72883551  0.09701540     0.12600
H314        H  0.34276115  0.76957644  0.19526997     0.12400
H315        H  0.34634091  0.76822531  0.30761550     0.12900
H316        H  0.33599899  0.61510821  0.30790723     0.14900
C317        C  0.77675283  0.25458298  0.57279401    -0.05200
C318        C  0.82019065  0.26877159  0.61546303    -0.05100
C319        C  0.85164707  0.24521128  0.61237972    -0.23300
C320        C  0.83970926  0.20629254  0.56720127     0.19000
C321        C  0.79426110  0.18968455  0.52652696     0.16200
C322        C  0.76357187  0.21421325  0.52914691    -0.18300
C323        C  0.78073466  0.14948291  0.48294491    -0.20100
C324        C  0.81276332  0.12716548  0.47798161    -0.12700
C325        C  0.85973681  0.14505906  0.51561213     0.04000
C326        C  0.87269087  0.18439069  0.56098456    -0.24800
H327        H  0.83091301  0.29953496  0.64969199     0.09100
H328        H  0.88581582  0.25808863  0.64466183     0.12700
H329        H  0.72948569  0.20219834  0.49689452     0.12600
H330        H  0.74571379  0.13581138  0.45187774     0.12400
H331        H  0.80161662  0.09697966  0.44279769     0.12900
H332        H  0.90833923  0.19807883  0.59093551     0.14900
C333        C  0.76547965  0.54531922  0.56841953    -0.05200
C334        C  0.74168148  0.57077324  0.59509299    -0.05100
C335        C  0.76283815  0.62591646  0.58843053    -0.23300
C336        C  0.80866957  0.65648532  0.55587145     0.19000
C337        C  0.83380933  0.63115421  0.53107818     0.16200
C338        C  0.81178228  0.57582337  0.53697416    -0.18300
C339        C  0.88014573  0.66137356  0.49983412    -0.20100
C340        C  0.90096479  0.71605322  0.49187884    -0.12700
C341        C  0.87565524  0.74177770  0.51438520     0.04000
C342        C  0.82948947  0.71164314  0.54690475    -0.24800
H343        H  0.70571523  0.54758918  0.61915234     0.09100
H344        H  0.74305592  0.64450705  0.60806814     0.12700
H345        H  0.83027435  0.55614138  0.51670350     0.12600
H346        H  0.90005105  0.64260700  0.48091146     0.12400
H347        H  0.93644933  0.73801744  0.46663449     0.12900
H348        H  0.80968831  0.73091630  0.56484228     0.14900
C349        C  0.47935292  0.24826777  0.55913311    -0.05200
C350        C  0.45414937  0.20305903  0.59700935    -0.05100
C351        C  0.39898764  0.17033665  0.59296289    -0.23300
C352        C  0.36767988  0.18280150  0.55181572     0.19000
C353        C  0.39251917  0.22924054  0.51495579     0.16200
C354        C  0.44818398  0.26117453  0.51805550    -0.18300
C355        C  0.36121800  0.24281140  0.47548496    -0.20100
C356        C  0.30608133  0.21036899  0.47168193    -0.12700
C357        C  0.28079123  0.16295825  0.50628145     0.04000
C358        C  0.31209406  0.14954569  0.54662796    -0.24800
H359        H  0.47745978  0.19234427  0.62873603     0.09100
H360        H  0.38083888  0.13519741  0.62192983     0.12700
H361        H  0.46730750  0.29628146  0.48916330     0.12600
H362        H  0.37938143  0.27840967  0.44723636     0.12400
H363        H  0.28320952  0.22173994  0.44006992     0.12900
H364        H  0.29327224  0.11343571  0.57396579     0.14900
C365        C  0.86338819  0.12750579  0.02896792    -0.05200
C366        C  0.88058684  0.17194270  0.98944167    -0.05100
C367        C  0.85904614  0.20509719  0.99047579    -0.23300
C368        C  0.82043035  0.19512335  0.03187933     0.19000
C369        C  0.80405244  0.15174026  0.07352804     0.16200
C370        C  0.82507042  0.11767398  0.07123794    -0.18300
C371        C  0.76666242  0.14308033  0.11635459    -0.20100
C372        C  0.74493952  0.17626477  0.11689631    -0.12700
C373        C  0.75947311  0.21810204  0.07400019     0.04000
C374        C  0.79761060  0.22755785  0.03187487    -0.24800
H375        H  0.91000160  0.18041375  0.95638576     0.09100
H376        H  0.87238585  0.23835486  0.95860068     0.12700
H377        H  0.81196778  0.08393574  0.10238621     0.12600
H378        H  0.75389030  0.11042273  0.14901954     0.12400
H379        H  0.71547493  0.16829043  0.14964726     0.12900
H380        H  0.80947948  0.26022650  0.99932177     0.14900
C381        C  0.86501093  0.71327273  0.07782686    -0.05200
C382        C  0.88470128  0.69088682  0.12310703    -0.05100
C383        C  0.85892178  0.63566495  0.13197420    -0.23300
C384        C  0.81367635  0.60171561  0.09465537     0.19000
C385        C  0.79316634  0.62388333  0.04951808     0.16200
C386        C  0.81834773  0.67946545  0.04219956    -0.18300
C387        C  0.74891434  0.59001935  0.01088718    -0.20100
C388        C  0.72600882  0.53473939  0.01582541    -0.12700
C389        C  0.74626855  0.51218608  0.06012036     0.04000
C390        C  0.78962295  0.54600320  0.10028598    -0.24800
H391        H  0.92057814  0.71612375  0.15110775     0.09100
H392        H  0.87524671  0.61944891  0.16676463     0.12700
H393        H  0.80317543  0.69618552  0.00657178     0.12600
H394        H  0.73265868  0.60626969  0.97605030     0.12400
H395        H  0.69219546  0.50940931  0.98501122     0.12900
H396        H  0.80578278  0.52894912  0.13413357     0.14900
C397        C  0.27048276  0.13141237  0.07400620    -0.05200
C398        C  0.29439029  0.17966569  0.10745199    -0.05100
C399        C  0.34942314  0.21016881  0.11692763    -0.23300
C400        C  0.38161282  0.19351613  0.09201591     0.19000
C401        C  0.35785840  0.14459420  0.05921242     0.16200
C402        C  0.30258292  0.11345867  0.05149919    -0.18300
C403        C  0.38978687  0.12860204  0.03237421    -0.20100
C404        C  0.44463880  0.16149151  0.03626668    -0.12700
C405        C  0.46854284  0.21013817  0.06837046     0.04000
C406        C  0.43704617  0.22563710  0.09737417    -0.24800
H407        H  0.27051145  0.19432851  0.12543300     0.09100
H408        H  0.36681268  0.24750629  0.14212447     0.12700
H409        H  0.28472010  0.07663654  0.02513485     0.12600
H410        H  0.37230169  0.09134802  0.00699388     0.12400
H411        H  0.46874677  0.14918643  0.01402415     0.12900
H412        H  0.45567080  0.26349297  0.12169656     0.14900
C413        C  0.65690327  0.31063703  0.93364967    -0.05200
C414        C  0.61671667  0.26516670  0.90164967    -0.05100
C415        C  0.61227715  0.26322620  0.83684564    -0.23300
C416        C  0.64982768  0.30542059  0.80242688     0.19000
C417        C  0.69393766  0.34821234  0.83385598     0.16200
C418        C  0.69777942  0.34998600  0.89903928    -0.18300
C419        C  0.73390036  0.38801045  0.79948815    -0.20100
C420        C  0.72862842  0.38695169  0.73473152    -0.12700
C421        C  0.68217273  0.34769358  0.70265184     0.04000
C422        C  0.64472449  0.30487522  0.73722482    -0.24800
H423        H  0.58874524  0.23052616  0.92647655     0.09100
H424        H  0.57958769  0.22859870  0.81371117     0.12700
H425        H  0.73278718  0.38189615  0.92253781     0.12600
H426        H  0.76929788  0.41991181  0.82262453     0.12400
H427        H  0.76138958  0.41701639  0.70985483     0.12900
H428        H  0.61223429  0.27052096  0.71381255     0.14900
C429        C  0.66453759  0.31500303  0.20278610    -0.05200
C430        C  0.65774677  0.26898559  0.23454790    -0.05100
C431        C  0.65764348  0.26605361  0.29916964    -0.23300
C432        C  0.66139311  0.30792951  0.33354779     0.19000
C433        C  0.66173620  0.35138452  0.30210352     0.16200
C434        C  0.66210651  0.35406897  0.23706963    -0.18300
C435        C  0.66012456  0.39059235  0.33624496    -0.20100
C436        C  0.66166388  0.38842873  0.40098512    -0.12700
C437        C  0.66822029  0.34903594  0.43335396     0.04000
C438        C  0.66354242  0.30646697  0.39869303    -0.24800
H439        H  0.65197767  0.23466950  0.20948712     0.09100
H440        H  0.65444756  0.23095268  0.32216948     0.12700
H441        H  0.65878572  0.38566108  0.21361831     0.12600
H442        H  0.65739115  0.42275874  0.31295307     0.12400
H443        H  0.65714868  0.41756942  0.42546501     0.12900
H444        H  0.66069653  0.27174300  0.42199559     0.14900
loop_ 
_geom_bond_atom_site_label_1 
_geom_bond_atom_site_label_2 
_geom_bond_distance 
_geom_bond_site_symmetry_2 
_ccdc_geom_bond_type 
C1            C3   1.544       .  S
C1            C5   1.551       .  S
C1            C4   1.533       .  S
C1          C429   1.530       .  S
C2            C6   1.535       .  S
C2            C8   1.545       .  S
C2            C7   1.542       .  S
C2          C413   1.532   1_554  S
C3           C11   1.381       .  A
C3            C6   1.392       .  A
C4           C15   1.379       .  A
C4            C7   1.392       .  A
C5           C19   1.385       .  A
C5            C8   1.400       .  A
C6            C9   1.379       .  A
C7           C13   1.379       .  A
C8           C16   1.378       .  A
C9           N10   1.359       .  A
C9           H22   1.082   1_554  S
N10          C11   1.358       .  A
N10         C373   1.440       .  S
C11          H12   1.081       .  S
C13          N14   1.355       .  A
C13          H23   1.081   1_554  S
N14          C15   1.355       .  A
N14         C405   1.432       .  S
C15          H21   1.082       .  S
C16          N17   1.357       .  A
C16          H18   1.081   1_554  S
N17          C19   1.359       .  A
N17         C389   1.441       .  S
C19          H20   1.081       .  S
C24          C26   1.548       .  S
C24          C28   1.538       .  S
C24          C27   1.545       .  S
C24         C437   1.531       .  S
C25          C29   1.540       .  S
C25          C31   1.549       .  S
C25          C30   1.546       .  S
C25         C421   1.530       .  S
C26          C34   1.385       .  A
C26          C29   1.393       .  A
C27          C38   1.381       .  A
C27          C30   1.394       .  A
C28          C42   1.381       .  A
C28          C31   1.395       .  A
C29          C32   1.384       .  A
C30          C36   1.385       .  A
C31          C39   1.386       .  A
C32          N33   1.360       .  A
C32          H45   1.083       .  S
N33          C34   1.361       .  A
N33         C317   1.447       .  S
C34          H35   1.081       .  S
C36          N37   1.356       .  A
C36          H46   1.082       .  S
N37          C38   1.355       .  A
N37         C333   1.437       .  S
C38          H44   1.081       .  S
C39          N40   1.361       .  A
C39          H41   1.081       .  S
N40          C42   1.359       .  A
N40         C349   1.444       .  S
C42          H43   1.083       .  S
C47          C49   1.541   1_554  S
C47          C51   1.544   1_554  S
C47          C50   1.537   1_554  S
C47         C301   1.532       .  S
C48          C52   1.538       .  S
C48          C54   1.547       .  S
C48          C53   1.550       .  S
C48         C293   1.531       .  S
C49          C57   1.380       .  A
C49          C52   1.392       .  A
C50          C61   1.377   1_556  A
C50          C53   1.397       .  A
C51          C65   1.382       .  A
C51          C54   1.396       .  A
C52          C55   1.381       .  A
C53          C59   1.387       .  A
C54          C62   1.384       .  A
C55          N56   1.359       .  A
C55          H68   1.082       .  S
N56          C57   1.359       .  A
N56         C269   1.441       .  S
C57          H58   1.082   1_556  S
C59          N60   1.359       .  A
C59          H69   1.080       .  S
N60          C61   1.357   1_556  A
N60         C261   1.441       .  S
C61          H67   1.082       .  S
C62          N63   1.355       .  A
C62          H64   1.082       .  S
N63          C65   1.356       .  A
N63         C245   1.434       .  S
C65          H66   1.082   1_556  S
C70          C72   1.549       .  S
C70          C74   1.538       .  S
C70          C73   1.547       .  S
C70         C309   1.531       .  S
C71          C75   1.532       .  S
C71          C77   1.538       .  S
C71          C76   1.542       .  S
C71         C285   1.529       .  S
C72          C80   1.386       .  A
C72          C75   1.392       .  A
C73          C84   1.384       .  A
C73          C76   1.397       .  A
C74          C88   1.379       .  A
C74          C77   1.392       .  A
C75          C78   1.376       .  A
C76          C82   1.375       .  A
C77          C85   1.378       .  A
C78          N79   1.359       .  A
C78          H91   1.083       .  S
N79          C80   1.361       .  A
N79         C229   1.445       .  S
C80          H81   1.081       .  S
C82          N83   1.357       .  A
C82          H92   1.081       .  S
N83          C84   1.361       .  A
N83         C189   1.443       .  S
C84          H90   1.081       .  S
C85          N86   1.358       .  A
C85          H87   1.081       .  S
N86          C88   1.360       .  A
N86         C213   1.441       .  S
C88          H89   1.083       .  S
O93         Mg95   2.133       .  S
O93        Mg101   2.163   1_554  S
O93         C128   1.237       .  S
C94         H133   1.082       .  S
C94         O107   1.236       .  S
C94         O131   1.271       .  A
Mg95        O124   2.158   1_454  S
Mg95        O139   2.308       .  S
Mg95        O135   2.262   1_455  S
Mg95        O106   2.299   1_455  S
O96        Mg138   2.151   1_454  S
O96        Mg121   2.139       .  S
O96         C117   1.236       .  S
O97         C128   1.270   1_545  A
O97        Mg121   2.293       .  S
C98         O100   1.274       .  A
C98         O112   1.278       .  A
C98         C253   1.483       .  S
O99         C127   1.270   1_455  A
O99        Mg101   2.297       .  S
O100       Mg132   2.270       .  S
Mg101       O107   2.148   1_565  S
Mg101       O115   2.295       .  S
Mg101       O103   2.321   1_566  S
C102        O140   1.277       .  A
C102        O108   1.275       .  A
C102        C365   1.483       .  S
O103        C110   1.279       .  A
H104        C117   1.081       .  S
C105        H130   1.081   1_565  S
C105        O119   1.235   1_565  S
C105        O120   1.268       .  A
O106        C129   1.271       .  A
O107       Mg121   2.156   1_556  S
O108       Mg138   2.286   1_554  S
C109        O122   1.273       .  A
C109        O114   1.276       .  A
C109        C237   1.483       .  S
C110        O137   1.272       .  A
C110        C397   1.481       .  S
Mg111       O118   2.158       .  S
Mg111       O119   2.171   1_564  S
Mg111       O112   2.322   1_554  S
Mg111       O113   2.294   1_565  S
Mg111       O140   2.301   1_565  S
O113        C117   1.269   1_655  A
O114       Mg121   2.307   1_556  S
O115        C134   1.276   1_556  A
O116        C136   1.277       .  A
O116       Mg132   2.312   1_554  S
O118       Mg132   2.169   1_554  S
O118        C129   1.237       .  S
O119       Mg138   2.139       .  S
O120       Mg132   2.289       .  S
Mg121       O137   2.250       .  S
O122       Mg138   2.276   1_455  S
H123        C128   1.081       .  S
O124       Mg132   2.150       .  S
O124        C127   1.236       .  S
H125        C127   1.081       .  S
H126        C129   1.082       .  S
O131       Mg138   2.300   1_455  S
C134        O139   1.277       .  A
C134        C277   1.487   1_554  S
O135        C136   1.272       .  A
C136        C381   1.481       .  S
O141       Mg143   2.138       .  S
O141       Mg149   2.167   1_655  S
O141        C176   1.237       .  S
C142        H181   1.081       .  S
C142        O155   1.235       .  S
C142        O179   1.269       .  A
Mg143       O172   2.161   1_545  S
Mg143       O187   2.309       .  S
Mg143       O183   2.273   1_545  S
Mg143       O154   2.296   1_545  S
O144       Mg186   2.167       .  S
O144       Mg169   2.143       .  S
O144        C165   1.236       .  S
O145        C176   1.270   1_455  A
O145       Mg169   2.290       .  S
C146        O148   1.273       .  A
C146        O160   1.275       .  A
C146        C341   1.485       .  S
O147        C175   1.269       .  A
O147       Mg149   2.293   1_655  S
O148       Mg180   2.281       .  S
Mg149       O155   2.165       .  S
Mg149       O163   2.321   1_455  S
Mg149       O151   2.317       .  S
C150        O188   1.273       .  A
C150        O156   1.279       .  A
C150        C221   1.482       .  S
O151        C158   1.279       .  A
H152        C165   1.081       .  S
C153        H178   1.080       .  S
C153        O167   1.236       .  S
C153        O168   1.271   1_455  A
O154        C177   1.270       .  A
O155       Mg169   2.172       .  S
O156       Mg186   2.325   1_565  S
C157        O170   1.278       .  A
C157        O162   1.278       .  A
C157        C357   1.493       .  S
C158        O185   1.273       .  A
C158        C197   1.475       .  S
Mg159       O166   2.148       .  S
Mg159       O167   2.169   1_655  S
Mg159       O160   2.293       .  S
Mg159       O161   2.291   1_655  S
Mg159       O188   2.267   1_655  S
O161        C165   1.269   1_565  A
O162       Mg169   2.317       .  S
O163        C182   1.279       .  A
O164        C184   1.276       .  A
O164       Mg180   2.308       .  S
O166       Mg180   2.167       .  S
O166        C177   1.237       .  S
O167       Mg186   2.157   1_565  S
O168       Mg180   2.300       .  S
Mg169       O185   2.262       .  S
O170       Mg186   2.307       .  S
H171        C176   1.081       .  S
O172       Mg180   2.143       .  S
O172        C175   1.236   1_565  S
H173        C175   1.081   1_565  S
H174        C177   1.081       .  S
O179       Mg186   2.296       .  S
C182        O187   1.278       .  A
C182        C325   1.493       .  S
O183        C184   1.274       .  A
C184        C205   1.479       .  S
C189        C190   1.407       .  A
C189        C194   1.409       .  A
C190        C191   1.394       .  A
C190        H199   1.082       .  S
C191        C192   1.399       .  A
C191        H200   1.084       .  S
C192        C198   1.402       .  A
C192        C193   1.415       .  A
C193        C195   1.405       .  A
C193        C194   1.408       .  A
C194        H201   1.083       .  S
C195        C196   1.401       .  A
C195        H202   1.084       .  S
C196        C197   1.405       .  A
C196        H203   1.083       .  S
C197        C198   1.402       .  A
C198        H204   1.085       .  S
C205        C206   1.405       .  A
C205        C210   1.407       .  A
C206        C207   1.399       .  A
C206        H215   1.083       .  S
C207        C208   1.403       .  A
C207        H216   1.083       .  S
C208        C214   1.405       .  A
C208        C209   1.414       .  A
C209        C211   1.402       .  A
C209        C210   1.405       .  A
C210        H217   1.084       .  S
C211        C212   1.398       .  A
C211        H218   1.083       .  S
C212        C213   1.406       .  A
C212        H219   1.083       .  S
C213        C214   1.406       .  A
C214        H220   1.083       .  S
C221        C222   1.406       .  A
C221        C226   1.406       .  A
C222        C223   1.401       .  A
C222        H231   1.083       .  S
C223        C224   1.404       .  A
C223        H232   1.083       .  S
C224        C230   1.408       .  A
C224        C225   1.414       .  A
C225        C227   1.402       .  A
C225        C226   1.406       .  A
C226        H233   1.084       .  S
C227        C228   1.398       .  A
C227        H234   1.084       .  S
C228        C229   1.407       .  A
C228        H235   1.082       .  S
C229        C230   1.409       .  A
C230        H236   1.083       .  S
C237        C238   1.406       .  A
C237        C242   1.408       .  A
C238        C239   1.397       .  A
C238        H247   1.083       .  S
C239        C240   1.401       .  A
C239        H248   1.084       .  S
C240        C246   1.406       .  A
C240        C241   1.415       .  A
C241        C243   1.404       .  A
C241        C242   1.407       .  A
C242        H249   1.085       .  S
C243        C244   1.400       .  A
C243        H250   1.084       .  S
C244        C245   1.402       .  A
C244        H251   1.083       .  S
C245        C246   1.401       .  A
C246        H252   1.084       .  S
C253        C254   1.406       .  A
C253        C258   1.407       .  A
C254        C255   1.399       .  A
C254        H263   1.083       .  S
C255        C256   1.403       .  A
C255        H264   1.084       .  S
C256        C262   1.407       .  A
C256        C257   1.415       .  A
C257        C259   1.403   1_556  A
C257        C258   1.407       .  A
C258        H265   1.084   1_556  S
C259        C260   1.399       .  A
C259        H266   1.084       .  S
C260        C261   1.405   1_554  A
C260        H267   1.083       .  S
C261        C262   1.406       .  A
C262        H268   1.084       .  S
C269        C270   1.406       .  A
C269        C274   1.404       .  A
C270        C271   1.403       .  A
C270        H279   1.083       .  S
C271        C272   1.406       .  A
C271        H280   1.083       .  S
C272        C278   1.412       .  A
C272        C273   1.414       .  A
C273        C275   1.400   1_556  A
C273        C274   1.403       .  A
C274        H281   1.083   1_556  S
C275        C276   1.395       .  A
C275        H282   1.083       .  S
C276        C277   1.407   1_554  A
C276        H283   1.083       .  S
C277        C278   1.410       .  A
C278        H284   1.083       .  S
C285        C286   1.409       .  A
C285        C290   1.409       .  A
C286        C287   1.399       .  A
C286        H295   1.080       .  S
C287        C288   1.401       .  A
C287        H296   1.085       .  S
C288        C294   1.407       .  A
C288        C289   1.410       .  A
C289        C291   1.398       .  A
C289        C290   1.403       .  A
C290        H297   1.082       .  S
C291        C292   1.395       .  A
C291        H298   1.085       .  S
C292        C293   1.411       .  A
C292        H299   1.081       .  S
C293        C294   1.410       .  A
C294        H300   1.078       .  S
C301        C302   1.410       .  A
C301        C306   1.409       .  A
C302        C303   1.400       .  A
C302        H311   1.081       .  S
C303        C304   1.401       .  A
C303        H312   1.083       .  S
C304        C310   1.407       .  A
C304        C305   1.410       .  A
C305        C307   1.399       .  A
C305        C306   1.404       .  A
C306        H313   1.080       .  S
C307        C308   1.396       .  A
C307        H314   1.083       .  S
C308        C309   1.410       .  A
C308        H315   1.079       .  S
C309        C310   1.412       .  A
C310        H316   1.081       .  S
C317        C318   1.406       .  A
C317        C322   1.406       .  A
C318        C319   1.406       .  A
C318        H327   1.082       .  S
C319        C320   1.406       .  A
C319        H328   1.084       .  S
C320        C326   1.416       .  A
C320        C321   1.415       .  A
C321        C323   1.400       .  A
C321        C322   1.407       .  A
C322        H329   1.084       .  S
C323        C324   1.396       .  A
C323        H330   1.084       .  S
C324        C325   1.408       .  A
C324        H331   1.083       .  S
C325        C326   1.412       .  A
C326        H332   1.084       .  S
C333        C334   1.404       .  A
C333        C338   1.401       .  A
C334        C335   1.402       .  A
C334        H343   1.083       .  S
C335        C336   1.405       .  A
C335        H344   1.084       .  S
C336        C342   1.409       .  A
C336        C337   1.415       .  A
C337        C339   1.399       .  A
C337        C338   1.402       .  A
C338        H345   1.084       .  S
C339        C340   1.394       .  A
C339        H346   1.084       .  S
C340        C341   1.407       .  A
C340        H347   1.083       .  S
C341        C342   1.410       .  A
C342        H348   1.084       .  S
C349        C350   1.405       .  A
C349        C354   1.407       .  A
C350        C351   1.401       .  A
C350        H359   1.083       .  S
C351        C352   1.404       .  A
C351        H360   1.083       .  S
C352        C358   1.413       .  A
C352        C353   1.415       .  A
C353        C355   1.402       .  A
C353        C354   1.411       .  A
C354        H361   1.083       .  S
C355        C356   1.400       .  A
C355        H362   1.083       .  S
C356        C357   1.409       .  A
C356        H363   1.083       .  S
C357        C358   1.410       .  A
C358        H364   1.084       .  S
C365        C366   1.407   1_554  A
C365        C370   1.407       .  A
C366        C367   1.395       .  A
C366        H375   1.083       .  S
C367        C368   1.399   1_556  A
C367        H376   1.083       .  S
C368        C374   1.405       .  A
C368        C369   1.416       .  A
C369        C371   1.403       .  A
C369        C370   1.410       .  A
C370        H377   1.084       .  S
C371        C372   1.400       .  A
C371        H378   1.083       .  S
C372        C373   1.406       .  A
C372        H379   1.083       .  S
C373        C374   1.403       .  A
C374        H380   1.083   1_554  S
C381        C382   1.406       .  A
C381        C386   1.406       .  A
C382        C383   1.399       .  A
C382        H391   1.083       .  S
C383        C384   1.403       .  A
C383        H392   1.083       .  S
C384        C390   1.406       .  A
C384        C385   1.414       .  A
C385        C387   1.402       .  A
C385        C386   1.405       .  A
C386        H393   1.084       .  S
C387        C388   1.397       .  A
C387        H394   1.083   1_554  S
C388        C389   1.405       .  A
C388        H395   1.083   1_554  S
C389        C390   1.406       .  A
C390        H396   1.083       .  S
C397        C398   1.408       .  A
C397        C402   1.404       .  A
C398        C399   1.398       .  A
C398        H407   1.083       .  S
C399        C400   1.402       .  A
C399        H408   1.084       .  S
C400        C406   1.406       .  A
C400        C401   1.416       .  A
C401        C403   1.401       .  A
C401        C402   1.403       .  A
C402        H409   1.084       .  S
C403        C404   1.394       .  A
C403        H410   1.084       .  S
C404        C405   1.402       .  A
C404        H411   1.083       .  S
C405        C406   1.403       .  A
C406        H412   1.084       .  S
C413        C414   1.410       .  A
C413        C418   1.410       .  A
C414        C415   1.398       .  A
C414        H423   1.079       .  S
C415        C416   1.399       .  A
C415        H424   1.083       .  S
C416        C422   1.406       .  A
C416        C417   1.411       .  A
C417        C419   1.399       .  A
C417        C418   1.406       .  A
C418        H425   1.081       .  S
C419        C420   1.397       .  A
C419        H426   1.083       .  S
C420        C421   1.411       .  A
C420        H427   1.081       .  S
C421        C422   1.409       .  A
C422        H428   1.080       .  S
C429        C430   1.410       .  A
C429        C434   1.409       .  A
C430        C431   1.396       .  A
C430        H439   1.081       .  S
C431        C432   1.399       .  A
C431        H440   1.083       .  S
C432        C438   1.405       .  A
C432        C433   1.410       .  A
C433        C435   1.399       .  A
C433        C434   1.405       .  A
C434        H441   1.078       .  S
C435        C436   1.397       .  A
C435        H442   1.083       .  S
C436        C437   1.411       .  A
C436        H443   1.080       .  S
C437        C438   1.408       .  A
C438        H444   1.080       .  S
