geometry optimzed in LAMMPS
_audit_creation_date              2020-12-01 
_audit_creation_method            'lammps2cif' 
_symmetry_space_group_name_H-M    'P1' 
_symmetry_Int_Tables_number       1 
_symmetry_cell_setting            triclinic 
loop_ 
_symmetry_equiv_pos_as_xyz 
  x,y,z 
_cell_length_a                    48.83563142 
_cell_length_b                    48.77030325461622 
_cell_length_c                    30.36647020801197 
_cell_angle_alpha                 88.42283677006971 
_cell_angle_beta                  91.26693359412175 
_cell_angle_gamma                 136.83947169183668 
loop_ 
_atom_site_label 
_atom_site_type_symbol 
_atom_site_fract_x 
_atom_site_fract_y 
_atom_site_fract_z 
_atom_site_charge 
N1          N  0.50897172  0.92441621  0.24011222    -0.25900
N2          N  0.48126163  0.90973196  0.26953424    -0.33700
C3          C  0.49203417  0.90655412  0.30876710     0.02500
C4          C  0.52826220  0.91980721  0.30416412     0.08500
C5          C  0.53818244  0.93081818  0.26004166    -0.04600
H6          H  0.47633697  0.89847650  0.33928512     0.09200
H7          H  0.56600540  0.94557480  0.24449762     0.10400
Cu8        Cu  0.43554723  0.90433532  0.25885405     0.44200
Cu9        Cu  0.50836858  0.94171854  0.17687982     0.42000
Cu10       Cu  0.43812846  0.94811493  0.16070504     0.43900
N11         N  0.40564441  0.91946765  0.25221853    -0.33200
N12         N  0.40716852  0.93655730  0.21644174    -0.27500
C13         C  0.39390392  0.95204137  0.22625050    -0.03600
C14         C  0.38437120  0.94504747  0.27055721     0.08600
C15         C  0.39155679  0.92367949  0.28571738     0.02400
H16         H  0.39603679  0.97140497  0.20432595     0.10100
H17         H  0.39105853  0.91579499  0.31954555     0.09100
N18         N  0.47762584  0.96364685  0.11333755    -0.34700
N19         N  0.50274955  0.96118709  0.11885099    -0.26900
C20         C  0.52510642  0.97551133  0.08227937    -0.02100
C21         C  0.51385591  0.98792308  0.05261884     0.06500
C22         C  0.48353069  0.97978464  0.07337132     0.04600
H23         H  0.54874184  0.97791668  0.07813541     0.09700
H24         H  0.46735158  0.98577666  0.06096248     0.08500
N25         N  0.55956915  0.12860265  0.76740143    -0.25900
N26         N  0.58565022  0.14164345  0.73654379    -0.33700
C27         C  0.57696045  0.14984139  0.69962795     0.02500
C28         C  0.54337757  0.14126182  0.70717881     0.08500
C29         C  0.53340214  0.12816182  0.75075458    -0.04600
H30         H  0.59252393  0.15869617  0.66885586     0.09200
H31         H  0.50730953  0.11632300  0.76798904     0.10400
Cu32       Cu  0.62600976  0.13899277  0.74164493     0.44200
Cu33       Cu  0.55781792  0.10566882  0.82729950     0.42000
Cu34       Cu  0.61559247  0.08280522  0.83099710     0.43900
N35         N  0.65328485  0.12080618  0.74273706    -0.33200
N36         N  0.64906971  0.09928647  0.77506477    -0.27500
C37         C  0.66534579  0.08730060  0.76259418    -0.03600
C38         C  0.67995317  0.10154275  0.72012900     0.08600
C39         C  0.67204029  0.12297043  0.70888715     0.02400
H40         H  0.66387287  0.06716600  0.78161888     0.10100
H41         H  0.67716476  0.13703341  0.67742908     0.09100
N42         N  0.57850117  0.06913724  0.88104006    -0.34700
N43         N  0.55835808  0.07782797  0.87991609    -0.26900
C44         C  0.53680605  0.06377893  0.91707905    -0.02100
C45         C  0.54345530  0.04524629  0.94275386     0.06500
C46         C  0.57012927  0.04926251  0.91892799     0.04600
H47         H  0.51706740  0.06619336  0.92448230     0.09700
H48         H  0.58218584  0.03810683  0.92789564     0.08500
N49         N  0.38187424  0.56445096  0.99849186    -0.25900
N50         N  0.41209427  0.57035574  0.01018675    -0.33700
C51         C  0.40138886  0.54673802  0.04508634     0.02500
C52         C  0.36291116  0.52540719  0.05688525     0.08500
C53         C  0.35121425  0.53719259  0.02651022    -0.04600
H54         H  0.42170907  0.54833740  0.06357045     0.09200
H55         H  0.32345263  0.52835064  0.02625923     0.10400
Cu56       Cu  0.47063695  0.61977895  0.99115681     0.44200
Cu57       Cu  0.38709002  0.59835337  0.94829387     0.42000
Cu58       Cu  0.48793989  0.69929688  0.94676151     0.43900
N59         N  0.52238516  0.67922118  0.00349408    -0.33200
N60         N  0.52706187  0.70855153  0.99077656    -0.27500
C61         C  0.55697275  0.74137389  0.01432051    -0.03600
C62         C  0.57183260  0.73207816  0.04307018     0.08600
C63         C  0.54947744  0.69262711  0.03490691     0.02400
H64         H  0.56533864  0.76892181  0.01275307     0.10100
H65         H  0.54956338  0.67370415  0.05419471     0.09100
N66         N  0.44524377  0.67769617  0.89902124    -0.34700
N67         N  0.40847223  0.64075829  0.89866018    -0.26900
C68         C  0.39060451  0.63544679  0.86035727    -0.02100
C69         C  0.41762699  0.67079937  0.83558758     0.06500
C70         C  0.45170186  0.69675551  0.86131253     0.04600
H71         H  0.36100584  0.60739161  0.85050019     0.09700
H72         H  0.48001369  0.72674320  0.85222012     0.08500
N73         N  0.45269086  0.74902957  0.53106919    -0.25900
N74         N  0.43017820  0.74295336  0.49884842    -0.33700
C75         C  0.45146670  0.75954331  0.46137861     0.02500
C76         C  0.48918948  0.77672418  0.47003636     0.08500
C77         C  0.48907725  0.76973739  0.51475543    -0.04600
H78         H  0.43916705  0.75602320  0.42932358     0.09200
H79         H  0.51251131  0.77654697  0.53344614     0.10400
Cu80       Cu  0.36883618  0.70221874  0.50285289     0.44200
Cu81       Cu  0.43002672  0.72227388  0.59336024     0.42000
Cu82       Cu  0.32256918  0.63256900  0.59397959     0.43900
N83         N  0.31245606  0.64405691  0.49938456    -0.33200
N84         N  0.29635802  0.61762548  0.53198067    -0.27500
C85         C  0.26791991  0.58054587  0.51538015    -0.03600
C86         C  0.26657046  0.58387789  0.46995730     0.08600
C87         C  0.29455825  0.62457214  0.46136797     0.02400
H88         H  0.25334498  0.55366510  0.53428693     0.10100
H89         H  0.30591636  0.63889894  0.42921784     0.09100
N90         N  0.35857080  0.65430413  0.64969145    -0.34700
N91         N  0.39765826  0.68722192  0.64964033    -0.26900
C92         C  0.41208568  0.69257405  0.69048125    -0.02100
C93         C  0.38056039  0.66140281  0.71753991     0.06500
C94         C  0.34719719  0.63774841  0.69044306     0.04600
H95         H  0.44337614  0.71683470  0.69932088     0.09700
H96         H  0.31686525  0.61016145  0.69956765     0.08500
N97         N  0.07459411  0.65201671  0.74120268    -0.25900
N98         N  0.10498838  0.66974720  0.71448247    -0.33700
C99         C  0.10245494  0.68518249  0.67939440     0.02500
C100        C  0.06847810  0.67620783  0.68360297     0.08500
C101        C  0.05143752  0.65506660  0.72308739    -0.04600
H102        H  0.12130216  0.69781951  0.65057765     0.09200
H103        H  0.02300856  0.64075427  0.73624866     0.10400
Cu104      Cu  0.14063510  0.66111880  0.71738701     0.44200
Cu105      Cu  0.06311478  0.61973712  0.79789223     0.42000
Cu106      Cu  0.10755095  0.58483174  0.79265918     0.43900
N107        N  0.15483829  0.63052841  0.71077343    -0.33200
N108        N  0.14116530  0.60113467  0.73789818    -0.27500
C109        C  0.14875752  0.58203776  0.72108863    -0.03600
C110        C  0.16800748  0.60023310  0.68112270     0.08600
C111        C  0.17154328  0.63096249  0.67579617     0.02400
H112        H  0.13842695  0.55526305  0.73555583     0.10100
H113        H  0.18233088  0.64997463  0.64687622     0.09100
N114        N  0.07687138  0.57593838  0.84658492    -0.34700
N115        N  0.06065846  0.58871260  0.84937550    -0.26900
C116        C  0.04539933  0.58001899  0.89013560    -0.02100
C117        C  0.05259385  0.56095662  0.91379792     0.06500
C118        C  0.07250174  0.55894007  0.88508475     0.04600
H119        H  0.03134714  0.58812504  0.90189375     0.09700
H120        H  0.08404633  0.54697467  0.89204038     0.08500
N121        N  0.04201887  0.49389232  0.21917697    -0.25900
N122        N  0.01805226  0.48246712  0.25207785    -0.33700
C123        C  0.03130714  0.47986090  0.28929528     0.02500
C124        C  0.06501407  0.48957422  0.27984364     0.08500
C125        C  0.07114509  0.49825683  0.23490915    -0.04600
H126        H  0.01856111  0.47355737  0.32151917     0.09200
H127        H  0.09625390  0.50952619  0.21587147     0.10400
Cu128      Cu  0.97324372  0.47869551  0.24936079     0.44200
Cu129      Cu  0.03536970  0.50796042  0.15684655     0.42000
Cu130      Cu  0.96805629  0.51965207  0.15773672     0.43900
N131        N  0.94673873  0.49729944  0.25233289    -0.33200
N132        N  0.94659146  0.51481965  0.21861610    -0.27500
C133        C  0.93755481  0.53330808  0.23311557    -0.03600
C134        C  0.93189388  0.52703944  0.27836139     0.08600
C135        C  0.93752882  0.50374555  0.28915260     0.02400
H136        H  0.93873420  0.55275470  0.21291442     0.10100
H137        H  0.93958575  0.49620248  0.32203575     0.09100
N138        N  0.99558461  0.52480610  0.10238487    -0.34700
N139        N  0.01981529  0.52101798  0.10154375    -0.26900
C140        C  0.03301025  0.52794631  0.05999678    -0.02100
C141        C  0.01628506  0.53652333  0.03372744     0.06500
C142        C  0.99281794  0.53419432  0.06173394     0.04600
H143        H  0.05388422  0.52760146  0.05008065     0.09700
H144        H  0.97548281  0.53969543  0.05335942     0.08500
C145        C  0.04764449  0.91013661  0.35366927     0.81700
N146        N  0.08753036  0.94460055  0.35174995    -0.76600
C147        C  0.10126422  0.98072191  0.35188055     0.84100
N148        N  0.07476396  0.98236383  0.35408352    -0.76600
C149        C  0.03481739  0.94832117  0.35557289     0.84200
N150        N  0.02117200  0.91201060  0.35495022    -0.78300
C151        C  0.87896489  0.90115372  0.37048378     0.81700
N152        N  0.89254874  0.93006962  0.39863495    -0.76600
C153        C  0.93068652  0.95741873  0.41387649     0.84100
N154        N  0.95567067  0.95542532  0.40089970    -0.76600
C155        C  0.94215030  0.92586484  0.37330846     0.84200
N156        N  0.90386154  0.89903627  0.35784714    -0.78300
N157        N  0.72359775  0.82912650  0.31036021    -0.25900
N158        N  0.71512340  0.83080189  0.35058259    -0.33700
C159        C  0.74354001  0.84246061  0.37851376     0.02500
C160        C  0.77154868  0.84864096  0.35514537     0.08500
C161        C  0.75808588  0.83985965  0.31181146    -0.04600
H162        H  0.74510398  0.84865339  0.41297996     0.09200
H163        H  0.77347431  0.84368044  0.28322238     0.10400
Cu164      Cu  0.66947104  0.82370927  0.36651376     0.44200
Cu165      Cu  0.68960825  0.81724501  0.25596172     0.42000
Cu166      Cu  0.61478588  0.81651330  0.28062605     0.43900
N167        N  0.62496086  0.81921466  0.37839936    -0.33200
N168        N  0.60426740  0.81655389  0.34662945    -0.27500
C169        C  0.57564714  0.81111524  0.36486503    -0.03600
C170        C  0.57878339  0.81044346  0.41041762     0.09800
C171        C  0.61045580  0.81582359  0.41761554     0.02400
H172        H  0.55340479  0.80643216  0.34626472     0.10100
H173        H  0.62110933  0.81556248  0.44907239     0.09100
N174        N  0.62574068  0.80916630  0.21853535    -0.34700
N175        N  0.65105811  0.80761358  0.20986134    -0.26900
C176        C  0.64660719  0.79762864  0.16739539    -0.02100
C177        C  0.61738232  0.79302784  0.14848571     0.06500
C178        C  0.60511852  0.80084969  0.18172773     0.04600
H179        H  0.66279214  0.79313730  0.15185143     0.09700
H180        H  0.58120612  0.79834296  0.17999885     0.08500
N181        N  0.04617973  0.72988575  0.51853445    -0.25900
N182        N  0.02036446  0.69061501  0.51577986    -0.33700
C183        C  0.02377457  0.67674757  0.55201975     0.02500
C184        C  0.05345132  0.70899689  0.57857896     0.08500
C185        C  0.06725562  0.74221403  0.55616517    -0.04600
H186        H  0.00768083  0.64593748  0.55730221     0.09200
H187        H  0.09128488  0.77313628  0.56610503     0.10400
Cu188      Cu  0.98631663  0.65939860  0.45969879     0.44200
Cu189      Cu  0.05088070  0.76434984  0.47083816     0.42000
Cu190      Cu  0.98732232  0.71404532  0.37407716     0.43900
N191        N  0.96426645  0.63866133  0.39634899    -0.33200
N192        N  0.96507396  0.65859665  0.36497846    -0.27500
C193        C  0.95345578  0.63922721  0.32673728    -0.03600
C194        C  0.94488692  0.60550699  0.33435471     0.08600
C195        C  0.95203524  0.60611011  0.37894920     0.02400
H196        H  0.95350006  0.65015428  0.29519529     0.10100
H197        H  0.95116132  0.58608461  0.39703890     0.09100
N198        N  0.01849968  0.77185807  0.39087345    -0.34700
N199        N  0.04332460  0.79061448  0.42485085    -0.26900
C200        C  0.06061451  0.82805932  0.42586128    -0.02100
C201        C  0.04553680  0.83299208  0.39144860     0.06500
C202        C  0.01887476  0.79681128  0.36976019     0.04600
H203        H  0.08219437  0.84996375  0.45037189     0.09700
H204        H  0.00183619  0.78948270  0.34032846     0.08500
C205        C  0.26403002  0.11767053  0.40067102     0.81700
N206        N  0.22763324  0.08688322  0.38194977    -0.76600
C207        C  0.20095398  0.08825418  0.37745337     0.84100
N208        N  0.21118128  0.12093413  0.39095064    -0.76600
C209        C  0.24750899  0.15211685  0.40936528     0.84200
N210        N  0.27414944  0.15057425  0.41426741    -0.78300
C211        C  0.26239664  0.27887657  0.44082713     0.81700
N212        N  0.26048470  0.25045867  0.43119057    -0.76600
C213        C  0.23239673  0.21355174  0.45103491     0.84100
N214        N  0.20463025  0.20436988  0.47795642    -0.76600
C215        C  0.20662740  0.23267390  0.48802506     0.84200
N216        N  0.23623593  0.26997717  0.47030135    -0.78300
C217        C  0.11263851  0.26350851  0.54924644     0.81700
N218        N  0.14409065  0.27033751  0.53899760    -0.76600
C219        C  0.13927562  0.23944952  0.53437299     0.84100
N220        N  0.10209261  0.20106748  0.53832595    -0.76600
C221        C  0.07029425  0.19391169  0.54874853     0.84200
N222        N  0.07601176  0.22528820  0.55526549    -0.78300
N223        N  0.15309117  0.47467663  0.39575103    -0.25900
N224        N  0.15771813  0.50232342  0.41333906    -0.33700
C225        C  0.14789339  0.51478569  0.38345528     0.02500
C226        C  0.13628794  0.49390949  0.34497412     0.08500
C227        C  0.14047209  0.46907609  0.35376245    -0.04600
H228        H  0.14641160  0.53531620  0.39041710     0.09200
H229        H  0.13121978  0.44589922  0.33276632     0.10400
Cu230      Cu  0.16860868  0.51586415  0.47942971     0.44200
Cu231      Cu  0.15560284  0.44039618  0.43370659     0.42000
Cu232      Cu  0.14694716  0.44317776  0.55329886     0.43900
N233        N  0.16845218  0.51861828  0.54708662    -0.33200
N234        N  0.15909394  0.49126357  0.57443716    -0.27500
C235        C  0.15835004  0.49997645  0.61576457    -0.03600
C236        C  0.16777947  0.53449730  0.61422724     0.08600
C237        C  0.17402652  0.54549463  0.57008379     0.02400
H238        H  0.15040565  0.48188607  0.64464219     0.10100
H239        H  0.18028314  0.56999996  0.55526257     0.09100
N240        N  0.14454147  0.40384006  0.52302531    -0.34700
N241        N  0.15043696  0.40480851  0.48040679    -0.26900
C242        C  0.15021651  0.37767877  0.47238887    -0.02100
C243        C  0.14299573  0.35816851  0.51149769     0.06500
C244        C  0.13952609  0.37543155  0.54299090     0.04600
H245        H  0.15424876  0.37203195  0.44022900     0.09700
H246        H  0.13479241  0.36865449  0.57796602     0.08500
N247        N  0.45567094  0.12276660  0.55197525    -0.25900
N248        N  0.46923351  0.11134709  0.53062463    -0.33700
C249        C  0.49588435  0.11708166  0.55565476     0.02500
C250        C  0.49917227  0.13220826  0.59530183     0.08500
C251        C  0.47317620  0.13550142  0.59226673    -0.04600
H252        H  0.51111415  0.10973963  0.54598041     0.09200
H253        H  0.46803760  0.14695204  0.61691262     0.10400
Cu254      Cu  0.44921242  0.08438891  0.47051526     0.44200
Cu255      Cu  0.41559391  0.12115634  0.52122694     0.42000
Cu256      Cu  0.37902972  0.07099899  0.41062757     0.43900
N257        N  0.42133706  0.04866797  0.41630869    -0.33200
N258        N  0.39486012  0.04338623  0.39265359    -0.27500
C259        C  0.38105937  0.01740047  0.36028924    -0.03600
C260        C  0.39976791  0.00571973  0.36467128     0.08600
C261        C  0.42491182  0.02604888  0.40048036     0.02400
H262        H  0.35855477  0.00712935  0.33633635     0.10100
H263        H  0.44429126  0.02435741  0.41426292     0.09100
N264        N  0.36751096  0.10030713  0.43784145    -0.34700
N265        N  0.37984323  0.11797412  0.47661037    -0.26900
C266        C  0.36541377  0.13297153  0.48203829    -0.02100
C267        C  0.34283106  0.12402231  0.44529917     0.06500
C268        C  0.34506210  0.10346310  0.41802849     0.04600
H269        H  0.37035843  0.14859361  0.51100923     0.09700
H270        H  0.33128995  0.09133775  0.38603137     0.08500
C271        C  0.90833220  0.04702346  0.51630676     0.81700
N272        N  0.90018689  0.01806090  0.49379592    -0.76600
C273        C  0.92957165  0.02139200  0.48433467     0.84100
N274        N  0.96786527  0.05449486  0.49715451    -0.76600
C275        C  0.97643590  0.08374685  0.51990352     0.84200
N276        N  0.94642225  0.07955680  0.52973454    -0.78300
N277        N  0.66415302  0.97518506  0.41847283    -0.25900
N278        N  0.64744001  0.98395468  0.43786392    -0.33700
C279        C  0.61734578  0.97181626  0.41273722     0.02500
C280        C  0.61497568  0.95470081  0.37519146     0.08500
C281        C  0.64534147  0.95758019  0.37973345    -0.04600
H282        H  0.59961729  0.97662989  0.42054570     0.09200
H283        H  0.65334672  0.94793494  0.35649044     0.10400
Cu284      Cu  0.66828501  0.01454910  0.49607685     0.44200
Cu285      Cu  0.71207631  0.98935565  0.44797517     0.42000
Cu286      Cu  0.74896560  0.04082776  0.55678662     0.43900
N287        N  0.68976136  0.04397355  0.55512536    -0.33200
N288        N  0.71794221  0.05239388  0.57928425    -0.27500
C289        C  0.72250055  0.06972545  0.61681365    -0.03600
C290        C  0.69618773  0.07259491  0.61528505     0.08600
C291        C  0.67631386  0.05625271  0.57572308     0.02400
H292        H  0.74383510  0.08019003  0.64261202     0.10100
H293        H  0.65315360  0.05293396  0.56299586     0.09100
N294        N  0.77367133  0.02631727  0.52219021    -0.34700
N295        N  0.75966223  0.00729347  0.48418165    -0.26900
C296        C  0.78192196  0.00223488  0.47153923    -0.02100
C297        C  0.81169138  0.01915831  0.50237403     0.06500
C298        C  0.80565908  0.03422830  0.53416276     0.04600
H299        H  0.77712045  0.98772160  0.44145112     0.09700
H300        H  0.82295196  0.04951912  0.56387037     0.08500
N301        N  0.29630569  0.40402878  0.34336199    -0.25900
N302        N  0.29129245  0.41349408  0.38039593    -0.33700
C303        C  0.29237407  0.39648702  0.41461724     0.02500
C304        C  0.29759001  0.37435171  0.39901662     0.08500
C305        C  0.29994139  0.37957500  0.35340193    -0.04600
H306        H  0.28632849  0.39742755  0.44829790     0.09200
H307        H  0.30203967  0.36519490  0.32938862     0.10400
Cu308      Cu  0.27527109  0.44210313  0.38460297     0.44200
Cu309      Cu  0.29522279  0.42488014  0.28270301     0.42000
Cu310      Cu  0.26704822  0.47911985  0.29185801     0.43900
N311        N  0.25689816  0.46852178  0.38901255    -0.33200
N312        N  0.25490623  0.48413353  0.35465380    -0.27500
C313        C  0.24739757  0.50406535  0.36901587    -0.03600
C314        C  0.24424054  0.50017223  0.41469977     0.08600
C315        C  0.25011748  0.47720315  0.42594770     0.02400
H316        H  0.24637467  0.52161604  0.34805739     0.10100
H317        H  0.25240365  0.46994372  0.45886780     0.09100
N318        N  0.28444278  0.47261278  0.23449366    -0.34700
N319        N  0.29521780  0.45444508  0.23103488    -0.26900
C320        C  0.30782248  0.45979361  0.18949988    -0.02100
C321        C  0.30459067  0.48208936  0.16578624     0.06500
C322        C  0.28949705  0.48937437  0.19533056     0.04600
H323        H  0.31931025  0.44896649  0.17784471     0.09700
H324        H  0.28425431  0.50721759  0.18934349     0.08500
C325        C  0.87688252  0.04499438  0.52304708    -0.15000
C326        C  0.84254257  0.02002359  0.49976698    -0.30200
H327        H  0.88310017  0.06601664  0.54551113     0.14000
H328        H  0.83755128  0.00066700  0.47557052     0.14600
C329        C  0.01871874  0.12187344  0.52888155    -0.15000
C330        C  0.02877468  0.15323176  0.54676262    -0.30200
H331        H  0.04195886  0.12509490  0.51774190     0.14000
H332        H  0.00536003  0.15004101  0.55697358     0.14600
C333        C  0.14067754  0.32644085  0.51732476    -0.15000
C334        C  0.11687181  0.29670832  0.54745461    -0.30200
H335        H  0.15669203  0.32583606  0.49382427     0.14000
H336        H  0.09766862  0.29487646  0.56807220     0.14600
C337        C  0.17287995  0.22121894  0.51077441    -0.15000
C338        C  0.17388214  0.24886604  0.51917981    -0.30200
H339        H  0.14615754  0.18972633  0.51793692     0.14000
H340        H  0.20103818  0.28032754  0.51245887     0.14600
C341        C  0.28487790  0.31501795  0.41242333    -0.15000
C342        C  0.29163156  0.34524181  0.42714251    -0.30200
H343        H  0.29042027  0.31426136  0.37829231     0.14000
H344        H  0.28670600  0.34538581  0.46185438     0.14600
C345        C  0.25671646  0.18647528  0.42516609    -0.15000
C346        C  0.22674841  0.18099281  0.43771348    -0.30200
H347        H  0.28763345  0.21583464  0.42694676     0.14000
H348        H  0.19636525  0.15085378  0.43925122     0.14600
C349        C  0.29095408  0.11359016  0.40682168    -0.15000
C350        C  0.31961440  0.13270192  0.43796500    -0.30200
H351        H  0.28443465  0.09120204  0.38692808     0.14000
H352        H  0.32449567  0.15315653  0.45997801     0.14600
C353        C  0.94472376  0.98963607  0.44323645    -0.15000
C354        C  0.91887856  0.98981847  0.45750856    -0.30200
H355        H  0.97612348  0.01337580  0.45245260     0.14000
H356        H  0.88750887  0.96557389  0.44826939     0.14600
C357        C  0.83816435  0.87422657  0.35194179    -0.15000
C358        C  0.81074370  0.86893466  0.37325491    -0.30200
H359        H  0.83112828  0.86007466  0.32051460     0.14000
H360        H  0.81786027  0.88161468  0.40579320     0.14600
C361        C  0.14456789  0.01716641  0.35704764    -0.15000
C362        C  0.15931217  0.05307423  0.36370246    -0.30200
H363        H  0.16423664  0.01378151  0.35877468     0.14000
H364        H  0.13946336  0.05624310  0.36242760     0.14600
C365        C  0.00797315  0.95193661  0.36471625    -0.15000
C366        C  0.96796628  0.92140354  0.36151282    -0.30200
H367        H  0.02193349  0.98116620  0.37451390     0.14000
H368        H  0.95381679  0.89266947  0.34940597     0.14600
C369        C  0.03383923  0.87146431  0.36057568    -0.15000
C370        C  0.05790220  0.87034778  0.38047782    -0.30200
H371        H  0.00317034  0.84380266  0.35227485     0.14000
H372        H  0.08726710  0.89795358  0.39217738     0.14600
C373        C  0.93086501  0.54819513  0.31089506    -0.15000
C374        C  0.93719194  0.57938400  0.30034276    -0.30200
H375        H  0.92839580  0.53987656  0.34525284     0.14000
H376        H  0.93960085  0.58781758  0.26604029     0.14600
C377        C  0.11490799  0.49144200  0.30716026    -0.15000
C378        C  0.09089909  0.49547000  0.31378199    -0.30200
H379        H  0.11586935  0.48274871  0.27517734     0.14000
H380        H  0.08738130  0.50028824  0.34697537     0.14600
C381        C  0.04441818  0.54782987  0.96046533    -0.15000
C382        C  0.02298206  0.54824550  0.98661642    -0.30200
H383        H  0.05663259  0.53754983  0.97350519     0.14000
H384        H  0.00987707  0.55753255  0.97331366     0.14600
C385        C  0.17586047  0.58589974  0.64674277    -0.15000
C386        C  0.16608992  0.55211039  0.65137965    -0.30200
H387        H  0.18781997  0.60255223  0.61573292     0.14000
H388        H  0.15468330  0.53568750  0.68253876     0.14600
C389        C  0.04948950  0.67921835  0.64830980    -0.15000
C390        C  0.07150094  0.70909642  0.61817242    -0.30200
H391        H  0.01702748  0.65585709  0.64616712     0.14000
H392        H  0.10373974  0.73408792  0.62229871     0.14600
C393        C  0.51898456  0.79174000  0.43602953    -0.15000
C394        C  0.55205100  0.80113035  0.44507594    -0.30200
H395        H  0.51200681  0.79261379  0.40218486     0.14000
H396        H  0.55886848  0.79993074  0.47886588     0.14600
C397        C  0.24361556  0.52173991  0.44700412    -0.15000
C398        C  0.25254292  0.55441909  0.43636233    -0.30200
H399        H  0.24151577  0.51372149  0.48134440     0.14000
H400        H  0.25621732  0.56328164  0.40202208     0.14600
C401        C  0.41460935  0.67929646  0.78955976    -0.15000
C402        C  0.38160623  0.65291893  0.76449601    -0.30200
H403        H  0.44117832  0.70837933  0.77570529     0.14000
H404        H  0.35464037  0.62414317  0.77845567     0.14600
C405        C  0.34344421  0.50176359  0.09830679    -0.15000
C406        C  0.31784412  0.49883257  0.12034749    -0.30200
H407        H  0.35424484  0.49065293  0.11353151     0.14000
H408        H  0.30930458  0.51251761  0.10650352     0.14600
C409        C  0.59826470  0.75453688  0.08162337    -0.15000
C410        C  0.59869902  0.77803163  0.10446567    -0.30200
H411        H  0.61305414  0.74708974  0.09494760     0.14000
H412        H  0.58081926  0.78240247  0.09316899     0.14600
C413        C  0.52625868  0.14227045  0.63078513    -0.15000
C414        C  0.51885534  0.13888862  0.67403117    -0.30200
H415        H  0.55116860  0.14809443  0.62009357     0.14000
H416        H  0.49255301  0.13066515  0.68489992     0.14600
C417        C  0.69367924  0.08976616  0.69055942    -0.15000
C418        C  0.68950526  0.08977397  0.64667738    -0.30200
H419        H  0.70351726  0.07743478  0.70489754     0.14000
H420        H  0.67636626  0.09890100  0.63294368     0.14600
C421        C  0.53247368  0.00760714  0.00932813    -0.15000
C422        C  0.52437973  0.02472478  0.98560697    -0.30200
H423        H  0.55412981  0.00882545  0.99742577     0.14000
H424        H  0.50333425  0.02420257  0.99799292     0.14600
C425        C  0.39524073  0.97761419  0.33866632    -0.15000
C426        C  0.38058574  0.96695077  0.29746283    -0.30200
H427        H  0.40827845  0.96851369  0.35291340     0.14000
H428        H  0.37043066  0.97856588  0.28170790     0.14600
C429        C  0.55368210  0.92878783  0.34136650    -0.15000
C430        C  0.58820011  0.94020435  0.33686499    -0.30200
H431        H  0.54386324  0.92702777  0.37409035     0.14000
H432        H  0.59733865  0.93981949  0.30480697     0.14600
loop_ 
_geom_bond_atom_site_label_1 
_geom_bond_atom_site_label_2 
_geom_bond_distance 
_geom_bond_site_symmetry_2 
_ccdc_geom_bond_type 
N1            N2   1.322       .  A
N1            C5   1.349       .  A
N1           Cu9   2.084       .  S
N2            C3   1.342       .  A
N2           Cu8   2.067       .  S
C3            C4   1.380       .  A
C3            H6   1.083       .  S
C4            C5   1.388       .  A
C4          C429   1.477       .  S
C5            H7   1.082       .  S
Cu8          N11   2.066       .  S
Cu9          N19   2.085       .  S
Cu10         N12   2.070       .  S
Cu10         N18   2.072       .  S
N11          N12   1.321       .  A
N11          C15   1.341       .  A
N12          C13   1.347       .  A
C13          C14   1.383       .  A
C13          H16   1.082       .  S
C14          C15   1.386       .  A
C14         C426   1.478       .  S
C15          H17   1.081       .  S
N18          N19   1.324       .  A
N18          C22   1.344       .  A
N19          C20   1.346       .  A
C20          C21   1.383       .  A
C20          H23   1.082       .  S
C21          C22   1.385       .  A
C21         C421   1.479   1_565  S
C22          H24   1.081       .  S
N25          N26   1.320       .  A
N25          C29   1.349       .  A
N25         Cu33   2.079       .  S
N26          C27   1.341       .  A
N26         Cu32   2.069       .  S
C27          C28   1.388       .  A
C27          H30   1.081       .  S
C28          C29   1.387       .  A
C28         C414   1.487       .  S
C29          H31   1.082       .  S
Cu32         N35   2.069       .  S
Cu33         N43   2.080       .  S
Cu34         N36   2.082       .  S
Cu34         N42   2.083       .  S
N35          N36   1.321       .  A
N35          C39   1.342       .  A
N36          C37   1.349       .  A
C37          C38   1.387       .  A
C37          H40   1.082       .  S
C38          C39   1.386       .  A
C38         C417   1.484       .  S
C39          H41   1.082       .  S
N42          N43   1.325       .  A
N42          C46   1.346       .  A
N43          C44   1.345       .  A
C44          C45   1.381       .  A
C44          H47   1.082       .  S
C45          C46   1.386       .  A
C45         C422   1.478       .  S
C46          H48   1.081       .  S
N49          N50   1.323   1_556  A
N49          C53   1.350   1_556  A
N49         Cu57   2.094       .  S
N50          C51   1.342       .  A
N50         Cu56   2.064   1_554  S
C51          C52   1.378       .  A
C51          H54   1.082       .  S
C52          C53   1.391       .  A
C52         C405   1.480       .  S
C53          H55   1.082       .  S
Cu56         N59   2.064   1_556  S
Cu57         N67   2.094       .  S
Cu58         N60   2.074       .  S
Cu58         N66   2.075       .  S
N59          N60   1.321   1_554  A
N59          C63   1.343       .  A
N60          C61   1.346   1_556  A
C61          C62   1.387       .  A
C61          H64   1.082       .  S
C62          C63   1.380       .  A
C62         C409   1.476       .  S
C63          H65   1.082       .  S
N66          N67   1.323       .  A
N66          C70   1.343       .  A
N67          C68   1.350       .  A
C68          C69   1.390       .  A
C68          H71   1.081       .  S
C69          C70   1.380       .  A
C69         C401   1.482       .  S
C70          H72   1.082       .  S
N73          N74   1.322       .  A
N73          C77   1.348       .  A
N73         Cu81   2.087       .  S
N74          C75   1.343       .  A
N74         Cu80   2.063       .  S
C75          C76   1.380       .  A
C75          H78   1.082       .  S
C76          C77   1.390       .  A
C76         C393   1.480       .  S
C77          H79   1.081       .  S
Cu80         N83   2.061       .  S
Cu81         N91   2.088       .  S
Cu82         N84   2.079       .  S
Cu82         N90   2.080       .  S
N83          N84   1.321       .  A
N83          C87   1.343       .  A
N84          C85   1.345       .  A
C85          C86   1.390       .  A
C85          H88   1.082       .  S
C86          C87   1.380       .  A
C86         C398   1.479       .  S
C87          H89   1.082       .  S
N90          N91   1.323       .  A
N90          C94   1.346       .  A
N91          C92   1.347       .  A
C92          C93   1.389       .  A
C92          H95   1.081       .  S
C93          C94   1.383       .  A
C93         C402   1.484       .  S
C94          H96   1.082       .  S
N97          N98   1.323       .  A
N97         C101   1.348       .  A
N97        Cu105   2.089       .  S
N98          C99   1.343       .  A
N98        Cu104   2.068       .  S
C99         C100   1.381       .  A
C99         H102   1.082       .  S
C100        C101   1.385       .  A
C100        C389   1.475       .  S
C101        H103   1.082       .  S
Cu104       N107   2.069       .  S
Cu105       N115   2.088       .  S
Cu106       N108   2.058       .  S
Cu106       N114   2.058       .  S
N107        N108   1.320       .  A
N107        C111   1.344       .  A
N108        C109   1.343       .  A
C109        C110   1.385       .  A
C109        H112   1.082       .  S
C110        C111   1.383       .  A
C110        C385   1.475       .  S
C111        H113   1.082       .  S
N114        N115   1.322       .  A
N114        C118   1.341       .  A
N115        C116   1.348       .  A
C116        C117   1.390       .  A
C116        H119   1.081       .  S
C117        C118   1.377       .  A
C117        C381   1.476       .  S
C118        H120   1.082       .  S
N121        N122   1.322       .  A
N121        C125   1.353       .  A
N121       Cu129   2.094       .  S
N122        C123   1.339       .  A
N122       Cu128   2.058   1_455  S
C123        C124   1.376       .  A
C123        H126   1.082       .  S
C124        C125   1.390       .  A
C124        C378   1.473       .  S
C125        H127   1.082       .  S
Cu128       N131   2.057       .  S
Cu129       N139   2.096       .  S
Cu130       N132   2.067       .  S
Cu130       N138   2.069       .  S
N131        N132   1.319       .  A
N131        C135   1.341       .  A
N132        C133   1.346       .  A
C133        C134   1.389       .  A
C133        H136   1.081       .  S
C134        C135   1.380       .  A
C134        C373   1.475       .  S
C135        H137   1.082       .  S
N138        N139   1.325   1_655  A
N138        C142   1.343       .  A
N139        C140   1.348       .  A
C140        C141   1.389       .  A
C140        H143   1.081       .  S
C141        C142   1.377   1_455  A
C141        C382   1.478   1_554  S
C142        H144   1.082       .  S
C145        N146   1.359       .  A
C145        N150   1.362       .  A
C145        C369   1.478       .  S
N146        C147   1.353       .  A
C147        N148   1.357       .  A
C147        C361   1.474   1_565  S
N148        C149   1.356       .  A
C149        N150   1.364       .  A
C149        C365   1.477       .  S
C151        N152   1.355       .  A
C151        N156   1.357       .  A
C151        C357   1.478       .  S
N152        C153   1.354       .  A
C153        N154   1.360       .  A
C153        C353   1.487       .  S
N154        C155   1.367       .  A
C155        N156   1.362       .  A
C155        C366   1.480       .  S
N157        N158   1.322       .  A
N157        C161   1.351       .  A
N157       Cu165   2.085       .  S
N158        C159   1.339       .  A
N158       Cu164   2.059       .  S
C159        C160   1.377       .  A
C159        H162   1.083       .  S
C160        C161   1.389       .  A
C160        C358   1.472       .  S
C161        H163   1.081       .  S
Cu164       N167   2.059       .  S
Cu165       N175   2.087       .  S
Cu166       N168   2.080       .  S
Cu166       N174   2.081       .  S
N167        N168   1.320       .  A
N167        C171   1.343       .  A
N168        C169   1.348       .  A
C169        C170   1.390       .  A
C169        H172   1.081       .  S
C170        C171   1.380       .  A
C170        C394   1.479       .  S
C171        H173   1.082       .  S
N174        N175   1.325       .  A
N174        C178   1.344       .  A
N175        C176   1.347       .  A
C176        C177   1.386       .  A
C176        H179   1.082       .  S
C177        C178   1.380       .  A
C177        C410   1.477       .  S
C178        H180   1.082       .  S
N181        N182   1.321       .  A
N181        C185   1.345       .  A
N181       Cu189   2.072       .  S
N182        C183   1.346       .  A
N182       Cu188   2.075   1_455  S
C183        C184   1.385       .  A
C183        H186   1.082       .  S
C184        C185   1.381       .  A
C184        C390   1.473       .  S
C185        H187   1.082       .  S
Cu188       N191   2.076       .  S
Cu189       N199   2.073       .  S
Cu190       N192   2.076       .  S
Cu190       N198   2.076   1_655  S
N191        N192   1.323       .  A
N191        C195   1.344       .  A
N192        C193   1.346       .  A
C193        C194   1.383       .  A
C193        H196   1.082       .  S
C194        C195   1.387       .  A
C194        C374   1.479       .  S
C195        H197   1.081       .  S
N198        N199   1.323       .  A
N198        C202   1.348       .  A
N199        C200   1.342       .  A
C200        C201   1.379       .  A
C200        H203   1.083       .  S
C201        C202   1.385       .  A
C201        C370   1.471       .  S
C202        H204   1.082       .  S
C205        N206   1.359       .  A
C205        N210   1.364       .  A
C205        C349   1.474       .  S
N206        C207   1.356       .  A
C207        N208   1.350       .  A
C207        C362   1.472       .  S
N208        C209   1.356       .  A
C209        N210   1.362       .  A
C209        C345   1.475       .  S
C211        N212   1.359       .  A
C211        N216   1.357       .  A
C211        C341   1.480       .  S
N212        C213   1.364       .  A
C213        N214   1.360       .  A
C213        C346   1.467       .  S
N214        C215   1.354       .  A
C215        N216   1.354       .  A
C215        C337   1.480       .  S
C217        N218   1.355       .  A
C217        N222   1.356       .  A
C217        C334   1.475       .  S
N218        C219   1.356       .  A
C219        N220   1.362       .  A
C219        C338   1.473       .  S
N220        C221   1.363       .  A
C221        N222   1.360       .  A
C221        C330   1.478       .  S
N223        N224   1.321       .  A
N223        C227   1.349       .  A
N223       Cu231   2.080       .  S
N224        C225   1.341       .  A
N224       Cu230   2.064       .  S
C225        C226   1.385       .  A
C225        H228   1.082       .  S
C226        C227   1.386       .  A
C226        C377   1.481       .  S
C227        H229   1.082       .  S
Cu230       N233   2.063       .  S
Cu231       N241   2.081       .  S
Cu232       N234   2.074       .  S
Cu232       N240   2.074       .  S
N233        N234   1.321       .  A
N233        C237   1.342       .  A
N234        C235   1.346       .  A
C235        C236   1.384       .  A
C235        H238   1.082       .  S
C236        C237   1.385       .  A
C236        C386   1.476       .  S
C237        H239   1.081       .  S
N240        N241   1.324       .  A
N240        C244   1.346       .  A
N241        C242   1.344       .  A
C242        C243   1.381       .  A
C242        H245   1.082       .  S
C243        C244   1.383       .  A
C243        C333   1.473       .  S
C244        H246   1.082       .  S
N247        N248   1.321       .  A
N247        C251   1.354       .  A
N247       Cu255   2.099       .  S
N248        C249   1.337       .  A
N248       Cu254   2.048       .  S
C249        C250   1.374       .  A
C249        H252   1.082       .  S
C250        C251   1.392       .  A
C250        C413   1.473       .  S
C251        H253   1.082       .  S
Cu254       N257   2.049       .  S
Cu255       N265   2.102       .  S
Cu256       N258   2.071       .  S
Cu256       N264   2.074       .  S
N257        N258   1.318       .  A
N257        C261   1.339       .  A
N258        C259   1.349       .  A
C259        C260   1.388       .  A
C259        H262   1.081       .  S
C260        C261   1.377       .  A
C260        C425   1.470   1_545  S
C261        H263   1.083       .  S
N264        N265   1.326       .  A
N264        C268   1.341       .  A
N265        C266   1.350       .  A
C266        C267   1.386       .  A
C266        H269   1.083       .  S
C267        C268   1.383       .  A
C267        C350   1.483       .  S
C268        H270   1.081       .  S
C271        N272   1.357       .  A
C271        N276   1.357       .  A
C271        C325   1.484       .  S
N272        C273   1.358       .  A
C273        N274   1.361       .  A
C273        C354   1.478   1_545  S
N274        C275   1.363       .  A
C275        N276   1.363       .  A
C275        C329   1.482   1_655  S
N277        N278   1.319       .  A
N277        C281   1.350       .  A
N277       Cu285   2.083       .  S
N278        C279   1.341       .  A
N278       Cu284   2.058   1_565  S
C279        C280   1.384       .  A
C279        H282   1.081       .  S
C280        C281   1.388       .  A
C280        C430   1.481       .  S
C281        H283   1.082       .  S
Cu284       N287   2.058       .  S
Cu285       N295   2.085   1_565  S
Cu286       N288   2.096       .  S
Cu286       N294   2.098       .  S
N287        N288   1.322       .  A
N287        C291   1.339       .  A
N288        C289   1.353       .  A
C289        C290   1.390       .  A
C289        H292   1.082       .  S
C290        C291   1.376       .  A
C290        C418   1.474       .  S
C291        H293   1.083       .  S
N294        N295   1.326       .  A
N294        C298   1.351       .  A
N295        C296   1.343       .  A
C296        C297   1.380       .  A
C296        H299   1.084   1_545  S
C297        C298   1.388       .  A
C297        C326   1.480       .  S
C298        H300   1.081       .  S
N301        N302   1.320       .  A
N301        C305   1.354       .  A
N301       Cu309   2.098       .  S
N302        C303   1.336       .  A
N302       Cu308   2.045       .  S
C303        C304   1.375       .  A
C303        H306   1.082       .  S
C304        C305   1.393       .  A
C304        C342   1.474       .  S
C305        H307   1.082       .  S
Cu308       N311   2.046       .  S
Cu309       N319   2.102       .  S
Cu310       N312   2.082       .  S
Cu310       N318   2.085       .  S
N311        N312   1.318       .  A
N311        C315   1.339       .  A
N312        C313   1.349       .  A
C313        C314   1.392       .  A
C313        H316   1.082       .  S
C314        C315   1.378       .  A
C314        C397   1.475       .  S
C315        H317   1.082       .  S
N318        N319   1.327       .  A
N318        C322   1.345       .  A
N319        C320   1.349       .  A
C320        C321   1.389       .  A
C320        H323   1.082       .  S
C321        C322   1.380       .  A
C321        C406   1.482       .  S
C322        H324   1.082       .  S
C325        C326   1.346       .  D
C325        H327   1.088       .  S
C326        H328   1.089       .  S
C329        C330   1.347       .  D
C329        H331   1.087       .  S
C330        H332   1.087       .  S
C333        C334   1.344       .  D
C333        H335   1.087       .  S
C334        H336   1.086       .  S
C337        C338   1.345       .  D
C337        H339   1.086       .  S
C338        H340   1.087       .  S
C341        C342   1.342       .  D
C341        H343   1.085       .  S
C342        H344   1.088       .  S
C345        C346   1.344       .  D
C345        H347   1.086       .  S
C346        H348   1.087       .  S
C349        C350   1.345       .  D
C349        H351   1.086       .  S
C350        H352   1.087       .  S
C353        C354   1.350       .  D
C353        H355   1.086   1_565  S
C354        H356   1.086       .  S
C357        C358   1.343       .  D
C357        H359   1.087       .  S
C358        H360   1.088       .  S
C361        C362   1.341       .  D
C361        H363   1.087       .  S
C362        H364   1.087       .  S
C365        C366   1.341   1_455  D
C365        H367   1.087       .  S
C366        H368   1.087       .  S
C369        C370   1.345       .  D
C369        H371   1.087       .  S
C370        H372   1.087       .  S
C373        C374   1.343       .  D
C373        H375   1.086       .  S
C374        H376   1.086       .  S
C377        C378   1.343       .  D
C377        H379   1.086       .  S
C378        H380   1.086       .  S
C381        C382   1.340       .  D
C381        H383   1.086       .  S
C382        H384   1.086       .  S
C385        C386   1.344       .  D
C385        H387   1.085       .  S
C386        H388   1.085       .  S
C389        C390   1.342       .  D
C389        H391   1.086       .  S
C390        H392   1.086       .  S
C393        C394   1.342       .  D
C393        H395   1.085       .  S
C394        H396   1.085       .  S
C397        C398   1.341       .  D
C397        H399   1.084       .  S
C398        H400   1.085       .  S
C401        C402   1.344       .  D
C401        H403   1.086       .  S
C402        H404   1.086       .  S
C405        C406   1.343       .  D
C405        H407   1.085       .  S
C406        H408   1.086       .  S
C409        C410   1.342       .  D
C409        H411   1.086       .  S
C410        H412   1.086       .  S
C413        C414   1.343       .  D
C413        H415   1.084       .  S
C414        H416   1.086       .  S
C417        C418   1.344       .  D
C417        H419   1.086       .  S
C418        H420   1.086       .  S
C421        C422   1.345   1_554  D
C421        H423   1.085   1_554  S
C422        H424   1.085       .  S
C425        C426   1.342       .  D
C425        H427   1.086       .  S
C426        H428   1.086       .  S
C429        C430   1.344       .  D
C429        H431   1.087       .  S
C430        H432   1.086       .  S
