geometry optimzed in LAMMPS
_audit_creation_date              2020-12-01 
_audit_creation_method            'lammps2cif' 
_symmetry_space_group_name_H-M    'P1' 
_symmetry_Int_Tables_number       1 
_symmetry_cell_setting            triclinic 
loop_ 
_symmetry_equiv_pos_as_xyz 
  x,y,z 
_cell_length_a                    32.27459933 
_cell_length_b                    32.217140315864626 
_cell_length_c                    25.196174608931276 
_cell_angle_alpha                 90.3049628320785 
_cell_angle_beta                  91.27479363317475 
_cell_angle_gamma                 120.02596680907376 
loop_ 
_atom_site_label 
_atom_site_type_symbol 
_atom_site_fract_x 
_atom_site_fract_y 
_atom_site_fract_z 
_atom_site_charge 
C1          C  0.66989325  0.34307780  0.11791419     0.30800
C2          C  0.67518429  0.34805300  0.00942973     0.30800
C3          C  0.69480725  0.31867125  0.09160870    -0.05400
C4          C  0.62124532  0.32087423  0.08668418    -0.06200
C5          C  0.69668747  0.39402375  0.09535020    -0.06000
C6          C  0.69796149  0.32170867  0.03675930    -0.05400
C7          C  0.62434831  0.32280826  0.03135153    -0.06200
C8          C  0.69888781  0.39667059  0.04005790    -0.06000
C9          C  0.72307944  0.29973235  0.02129424    -0.31400
N10         N  0.73430563  0.28264143  0.06518141     0.15100
C11         C  0.71693079  0.29365382  0.10831480    -0.31400
H12         H  0.72091415  0.28489299  0.14882612     0.17000
C13         C  0.57847169  0.30309839  0.01009435    -0.30400
N14         N  0.54768833  0.29062799  0.05057210     0.13800
C15         C  0.57322345  0.30228311  0.09724106    -0.30400
C16         C  0.71816180  0.44454118  0.02806191    -0.30700
N17         N  0.72933140  0.47068106  0.07381360     0.14300
H18         H  0.72234011  0.45983324  0.98920446     0.16900
C19         C  0.71625840  0.44039230  0.11529988    -0.30700
H20         H  0.71840142  0.45112755  0.15649344     0.16900
H21         H  0.55750506  0.29839600  0.13556328     0.16900
H22         H  0.73218360  0.29605475  0.98112126     0.17000
H23         H  0.56825584  0.29959549  0.96839918     0.16900
C24         C  0.65737788  0.31622588  0.50839181     0.30800
C25         C  0.66497226  0.32386610  0.61728955     0.30800
C26         C  0.68308516  0.29274533  0.53577258    -0.05400
C27         C  0.68464101  0.36753909  0.53180158    -0.06200
C28         C  0.60959357  0.29472163  0.53781498    -0.06000
C29         C  0.68730191  0.29698939  0.59089961    -0.05400
C30         C  0.68817193  0.37200429  0.58727028    -0.06200
C31         C  0.61374297  0.29825336  0.59318841    -0.06000
C32         C  0.71432290  0.27700720  0.60738716    -0.31400
N33         N  0.72543794  0.25994009  0.56390778     0.15100
C34         C  0.70654404  0.26916047  0.51996428    -0.31400
H35         H  0.71080108  0.26055921  0.47959129     0.17000
C36         C  0.71218846  0.42084958  0.59865014    -0.30400
N37         N  0.72512839  0.44507764  0.55248981     0.13800
C38         C  0.70827775  0.41300140  0.51148727    -0.30400
C39         C  0.56828983  0.28046158  0.61235253    -0.30700
N40         N  0.53696511  0.26708459  0.57046937     0.14300
H41         H  0.55875681  0.27938967  0.65341337     0.16900
C42         C  0.56152876  0.27628244  0.52502764    -0.30700
H43         H  0.54503400  0.27086876  0.48598166     0.16900
H44         H  0.71275540  0.42233286  0.47001592     0.16900
H45         H  0.72536970  0.27524204  0.64779526     0.17000
H46         H  0.72012725  0.43846780  0.63709846     0.16900
C47         C  0.33543296  0.67066165  0.98398431     0.30800
C48         C  0.32884645  0.67147825  0.87549028     0.30800
C49         C  0.30489463  0.69097619  0.96112983    -0.05400
C50         C  0.38311671  0.70015136  0.95555696    -0.06200
C51         C  0.31438568  0.62155602  0.95536499    -0.06000
C52         C  0.30202589  0.69227372  0.90591172    -0.05400
C53         C  0.37983912  0.70050373  0.90026633    -0.06200
C54         C  0.31019504  0.62194968  0.90029061    -0.06000
C55         C  0.28346848  0.72186741  0.89450806    -0.31400
N56         N  0.27280359  0.73602076  0.94060093     0.15100
C57         C  0.28594862  0.71752805  0.98159614    -0.31400
H58         H  0.28489551  0.72556230  0.02314619     0.17000
C59         C  0.42599849  0.72707395  0.88243763    -0.30400
N60         N  0.45677766  0.74292415  0.92516642     0.13800
C61         C  0.43106645  0.72661969  0.96984264    -0.30400
C62         C  0.29183949  0.57533795  0.88192612    -0.30700
N63         N  0.28627888  0.54712808  0.92419120     0.14300
H64         H  0.28430904  0.56309711  0.84090444     0.16900
C65         C  0.30086882  0.57511757  0.96885709    -0.30700
H66         H  0.30196832  0.56231899  0.00813060     0.16900
H67         H  0.44655911  0.73230452  0.00955605     0.16900
H68         H  0.27980892  0.73418285  0.85583810     0.17000
H69         H  0.43659649  0.73441548  0.84157584     0.16900
C70         C  0.32503653  0.65462397  0.37518398     0.30800
C71         C  0.33176327  0.66237502  0.48376654     0.30800
C72         C  0.30279155  0.68214565  0.40069274    -0.05400
C73         C  0.30129684  0.60674245  0.40533142    -0.06200
C74         C  0.37636429  0.68060381  0.39971618    -0.06000
C75         C  0.30701094  0.68707248  0.45587984    -0.05400
C76         C  0.30438988  0.61112946  0.46050636    -0.06200
C77         C  0.37958078  0.68438390  0.45500076    -0.06000
C78         C  0.28844131  0.71591198  0.46995771    -0.31400
N79         N  0.27109017  0.72624218  0.42549628     0.15100
C80         C  0.27946236  0.70572845  0.38295061    -0.31400
H81         H  0.26967987  0.70817796  0.34219940     0.17000
C82         C  0.28218554  0.56550164  0.48076675    -0.30400
N83         N  0.26645550  0.53332174  0.43962025     0.13800
C84         C  0.27846940  0.55802058  0.39363767    -0.30400
C85         C  0.42751235  0.71073681  0.46915699    -0.30700
N86         N  0.45340388  0.72294290  0.42446841     0.14300
H87         H  0.44280054  0.72167737  0.50886305     0.16900
C88         C  0.42276214  0.70496611  0.38174764    -0.30700
H89         H  0.43362156  0.70914968  0.34090786     0.16900
H90         H  0.27127279  0.54117766  0.35480209     0.16900
H91         H  0.28721035  0.72853979  0.50939550     0.17000
H92         H  0.27889255  0.55647357  0.52235642     0.16900
O93         O  0.06457843  0.99028886  0.03069460    -0.87500
C94         C  0.07039424  0.07229562  0.90541369     0.88500
Mg95       Mg  0.01007482  0.91634103  0.03713858     1.58100
O96         O  0.02714153  0.09555427  0.02223351    -0.87300
O97         O  0.09091269  0.05674072  0.07710021    -0.74600
C98         C  0.80336780  0.91093232  0.97700920     0.93600
O99         O  0.03366774  0.95732037  0.90938550    -0.74400
O100        O  0.82183438  0.88426560  0.97071597    -0.81900
Mg101      Mg  0.10155991  0.01167913  0.95636394     1.58000
C102        C  0.90688834  0.11052956  0.01616153     0.93500
O103        O  0.17592694  0.06657401  0.99326633    -0.80200
H104        H  0.03634345  0.11414063  0.09921160    -0.05500
C105        C  0.92416269  0.00603145  0.91430916     0.88400
O106        O  0.96463870  0.93570288  0.08930095    -0.74700
O107        O  0.08186120  0.06600725  0.95051532    -0.87400
O108        O  0.94738467  0.12805553  0.99424359    -0.80300
C109        C  0.09715515  0.20163974  0.94741801     0.93600
C110        C  0.19955905  0.11060435  0.00803754     0.93400
Mg111      Mg  0.90181269  0.00749472  0.03121110     1.58000
O112        O  0.82822118  0.95453389  0.99281371    -0.80200
O113        O  0.96946555  0.06065747  0.07877465    -0.74400
O114        O  0.11772643  0.18051969  0.96842579    -0.80300
O115        O  0.12238504  0.95391287  0.96166796    -0.82000
O116        O  0.88420723  0.83627513  0.02058108    -0.80300
C117        C  0.01204684  0.09168096  0.06765056     0.87900
O118        O  0.92030014  0.95225733  0.03647621    -0.87400
O119        O  0.93844120  0.02895973  0.95672627    -0.87500
O120        O  0.91176135  0.96192937  0.91090471    -0.74600
Mg121      Mg  0.10090072  0.11475167  0.01816312     1.58000
O122        O  0.05182010  0.18112980  0.94106597    -0.82000
H123        H  0.07948241  0.99418353  0.10856768    -0.05700
O124        O  0.97530034  0.92213774  0.96516646    -0.87200
H125        H  0.96693765  0.90394094  0.88809628    -0.05500
H126        H  0.91478278  0.95114897  0.11533419    -0.05700
C127        C  0.99087502  0.92631258  0.91994041     0.87900
C128        C  0.07887049  0.01282186  0.07326845     0.88400
C129        C  0.93184401  0.94597790  0.08150370     0.88500
H130        H  0.92376563  0.02445400  0.87873124    -0.05700
O131        O  0.03784700  0.08292625  0.89749025    -0.74700
Mg132      Mg  0.90089586  0.90307912  0.96946602     1.58000
H133        H  0.08731370  0.06683564  0.87163275    -0.05700
C134        C  0.09967822  0.91037694  0.97594097     0.93500
O135        O  0.95218601  0.83848955  0.04579310    -0.81900
C136        C  0.90667951  0.81648932  0.04080391     0.93500
O137        O  0.17932160  0.13532768  0.01555396    -0.81900
Mg138      Mg  0.99331833  0.10294120  0.95038100     1.58200
O139        O  0.05840756  0.89195858  0.99635436    -0.80200
O140        O  0.88265196  0.06646207  0.02816311    -0.81900
O141        O  0.97420964  0.05099952  0.47730764    -0.87500
C142        C  0.06375316  0.06230690  0.60005570     0.88500
Mg143      Mg  0.90004244  0.99555663  0.47234404     1.58100
O144        O  0.07959862  0.01484463  0.48135630    -0.87300
O145        O  0.03793952  0.07683550  0.42951171    -0.74600
C146        C  0.89711146  0.79274516  0.53097403     0.93600
O147        O  0.94942860  0.02572888  0.59954420    -0.74400
O148        O  0.87308214  0.81372977  0.53807847    -0.81900
Mg149      Mg  0.99998409  0.09138031  0.55144343     1.58000
C150        C  0.09573847  0.89465523  0.48308019     0.93500
O151        O  0.05142531  0.16432879  0.51354885    -0.80200
H152        H  0.09208574  0.02012440  0.40365798    -0.05500
C153        C  0.99829191  0.91620265  0.59072797     0.88400
O154        O  0.91677129  0.94856087  0.41845802    -0.74700
O155        O  0.05524850  0.07290835  0.55560075    -0.87400
O156        O  0.11433683  0.93663009  0.50391884    -0.80300
C157        C  0.19050357  0.08752468  0.55415738     0.93600
C158        C  0.09420803  0.18795473  0.49729048     0.93400
Mg159      Mg  0.99124975  0.88737304  0.47389794     1.58000
O160        O  0.93976578  0.81471053  0.51381441    -0.80200
O161        O  0.04132273  0.95374197  0.42585362    -0.74400
O162        O  0.16893559  0.10867961  0.53558141    -0.80300
O163        O  0.94106453  0.11015684  0.54824968    -0.82000
O164        O  0.82279229  0.87198030  0.49233055    -0.80300
C165        C  0.07237008  0.99732537  0.43596426     0.87900
O166        O  0.93623397  0.90625240  0.47039213    -0.87400
O167        O  0.01786103  0.92793763  0.54746148    -0.87500
O168        O  0.95488383  0.90482766  0.59601514    -0.74600
Mg169      Mg  0.09962029  0.08944499  0.48671215     1.58000
O170        O  0.16952789  0.04217691  0.55852566    -0.82000
H171        H  0.97336167  0.06334474  0.39975899    -0.04100
O172        O  0.91202135  0.96534020  0.54333008    -0.87200
H173        H  0.89736899  0.95954946  0.62046285    -0.05500
H174        H  0.93087955  0.89763265  0.39146513    -0.05700
C175        C  0.91810192  0.98249212  0.58872373     0.87900
C176        C  0.99415024  0.06415909  0.43440699     0.88400
C177        C  0.92747078  0.91602540  0.42564662     0.88500
H178        H  0.01923395  0.91742691  0.62541875    -0.05700
O179        O  0.07465921  0.02978891  0.60636649    -0.74700
Mg180      Mg  0.89269450  0.89158372  0.53947354     1.58000
H181        H  0.06008662  0.08002306  0.63470924    -0.05700
C182        C  0.89631096  0.08479269  0.53788036     0.93500
O183        O  0.82134818  0.93704058  0.46522387    -0.81900
C184        C  0.80056675  0.89204333  0.47263064     0.93500
O185        O  0.11943622  0.16829313  0.48938014    -0.81900
Mg186      Mg  0.09163205  0.98347032  0.55132616     1.58200
O187        O  0.87742672  0.04264747  0.51771855    -0.80200
O188        O  0.05069611  0.86852015  0.47462427    -0.81900
C189        C  0.14601178  0.32469362  0.49839263     0.16800
C190        C  0.16109736  0.37264896  0.51188698    -0.32300
C191        C  0.19313995  0.40844413  0.47823342     0.21200
C192        C  0.20860024  0.39691640  0.43245570     0.03400
C193        C  0.19400926  0.34899127  0.41934015    -0.22000
C194        C  0.16288092  0.31327489  0.45370049     0.12500
S195        S  0.10763865  0.27612836  0.53429976    -0.05700
C196        C  0.11567447  0.24010960  0.48975886    -0.09100
C197        C  0.14607485  0.26480768  0.44891545    -0.25700
S198        S  0.24607813  0.44542309  0.39588385    -0.02900
C199        C  0.24196948  0.48181635  0.44351234    -0.16400
C200        C  0.21257937  0.45714351  0.48512724    -0.14400
H201        H  0.14866375  0.38168791  0.54731148     0.21000
H202        H  0.20668151  0.33996975  0.38410017     0.17000
H203        H  0.15545155  0.24817254  0.41753038     0.19500
H204        H  0.20523148  0.47387127  0.51817295     0.12900
C205        C  0.58818792  0.80592629  0.41484530     0.16800
C206        C  0.63504569  0.84311426  0.40538206    -0.32300
C207        C  0.67318133  0.84213692  0.43257675     0.21200
C208        C  0.66484895  0.80539210  0.46687438     0.03400
C209        C  0.61825890  0.76903292  0.47711122    -0.22000
C210        C  0.58033300  0.77035902  0.45071543     0.12500
S211        S  0.53664436  0.79966903  0.38587593    -0.05700
C212        C  0.50476303  0.74948682  0.42374692    -0.09100
C213        C  0.53267472  0.73839019  0.45648883    -0.25700
S214        S  0.71518525  0.80951268  0.49536274    -0.02900
C215        C  0.74840787  0.86218859  0.46213622    -0.16400
C216        C  0.72128918  0.87533879  0.43014098    -0.14400
H217        H  0.64146806  0.87152919  0.37822422     0.21000
H218        H  0.61181986  0.74089267  0.50470124     0.17000
H219        H  0.51865832  0.70835331  0.48309028     0.19500
H220        H  0.73590344  0.90760079  0.40694596     0.12900
C221        C  0.18489092  0.77418102  0.42157637     0.16800
C222        C  0.14441152  0.77963268  0.41809752    -0.32300
C223        C  0.14801434  0.82135087  0.44051918     0.21200
C224        C  0.19041226  0.85668212  0.46421891     0.03400
C225        C  0.23090835  0.85122377  0.46781476    -0.22000
C226        C  0.22691597  0.80890106  0.44664988     0.12500
S227        S  0.18702427  0.72516566  0.39888397    -0.05700
C228        C  0.24463624  0.75115935  0.42466268    -0.09100
C229        C  0.26125853  0.79559198  0.44908638    -0.25700
S230        S  0.18710077  0.90410898  0.48997939    -0.02900
C231        C  0.12752194  0.87547588  0.46998721    -0.16400
C232        C  0.11180729  0.83187870  0.44376295    -0.14400
H233        H  0.11120288  0.75203424  0.39976627     0.21000
H234        H  0.26371966  0.87824901  0.48740438     0.17000
H235        H  0.29624477  0.81653131  0.46820476     0.19500
H236        H  0.07552304  0.80858335  0.42890281     0.12900
C237        C  0.24027407  0.41442313  0.94422485     0.16800
C238        C  0.22862865  0.36968428  0.96483295    -0.32300
C239        C  0.18832943  0.32907596  0.94292072     0.21200
C240        C  0.16083718  0.33264845  0.90207920     0.03400
C241        C  0.17348219  0.37732607  0.88018156    -0.22000
C242        C  0.21369537  0.41810494  0.90236260     0.12500
S243        S  0.28429940  0.46813255  0.96970580    -0.05700
C244        C  0.26710787  0.49608312  0.92322797    -0.09100
C245        C  0.22952526  0.46501178  0.88946329    -0.25700
S246        S  0.11042570  0.27953869  0.88502830    -0.02900
C247        C  0.12709599  0.25228781  0.93292470    -0.16400
C248        C  0.16961581  0.28301717  0.96010004    -0.14400
H249        H  0.24899003  0.36683029  0.99793912     0.21000
H250        H  0.15184722  0.38038894  0.84868112     0.17000
H251        H  0.21286723  0.47619105  0.85937770     0.19500
H252        H  0.18482135  0.27258040  0.99257380     0.12900
C253        C  0.66853058  0.86830015  0.97273531     0.16800
C254        C  0.62212569  0.85845254  0.98408721    -0.32300
C255        C  0.58386860  0.82284430  0.95336713     0.21200
C256        C  0.59153473  0.79926382  0.91183167     0.03400
C257        C  0.63799624  0.80896737  0.90067668    -0.22000
C258        C  0.67616336  0.84336175  0.93271540     0.12500
S259        S  0.71939344  0.90892879  0.00675232    -0.05700
C260        C  0.75128067  0.89090605  0.96820591    -0.09100
C261        C  0.72358695  0.85579038  0.93032073    -0.25700
S262        S  0.54019886  0.75701374  0.87947041    -0.02900
C263        C  0.50814690  0.77000949  0.92375999    -0.16400
C264        C  0.53604361  0.80589493  0.96071486    -0.14400
H265        H  0.61601149  0.87693118  0.01632844     0.21000
H266        H  0.64399669  0.78967437  0.86926396     0.17000
H267        H  0.73739406  0.84017268  0.90264811     0.19500
H268        H  0.52197186  0.81826821  0.99180290     0.12900
C269        C  0.22572629  0.82336406  0.93293209     0.16800
C270        C  0.21347319  0.85798791  0.91835013    -0.32300
C271        C  0.17741550  0.85990488  0.94666942     0.21200
C272        C  0.15461499  0.82870022  0.98764493     0.03400
C273        C  0.16788997  0.79512582  0.00328779    -0.22000
C274        C  0.20389878  0.79319730  0.97502807     0.12500
S275        S  0.26555539  0.81248264  0.90074419    -0.05700
C276        C  0.25308721  0.76724082  0.94494684    -0.09100
C277        C  0.22010044  0.76147366  0.98273512    -0.25700
S278        S  0.11030130  0.83512946  0.01544952    -0.02900
C279        C  0.12307565  0.88107062  0.97222945    -0.16400
C280        C  0.15991189  0.89052979  0.93809984    -0.14400
H281        H  0.23056887  0.88169585  0.88563499     0.21000
H282        H  0.15022762  0.77088683  0.03543374     0.17000
H283        H  0.20712855  0.73413077  0.01266910     0.19500
H284        H  0.17316682  0.91832390  0.90866520     0.12900
C285        C  0.35139083  0.65870822  0.63641366     0.16800
C286        C  0.36783306  0.65640419  0.68771383    -0.32300
C287        C  0.34330862  0.66083055  0.73069546     0.21200
C288        C  0.30391761  0.66663784  0.72288721     0.03400
C289        C  0.28668346  0.66754871  0.67163777    -0.22000
C290        C  0.31163504  0.66389060  0.62871739     0.12500
S291        S  0.37685122  0.65565022  0.57906871    -0.05700
C292        C  0.33502859  0.66405538  0.54402505    -0.09100
C293        C  0.30119454  0.66538985  0.57602924    -0.25700
S294        S  0.28036121  0.67325667  0.77996769    -0.02900
C295        C  0.32489620  0.66967932  0.81528161    -0.16400
C296        C  0.35466149  0.66119455  0.78353131    -0.14400
H297        H  0.39889860  0.65230127  0.69385643     0.21000
H298        H  0.25584231  0.67203001  0.66548997     0.17000
H299        H  0.26981212  0.66627252  0.56194064     0.19500
H300        H  0.38356546  0.65617795  0.79833427     0.12900
C301        C  0.35076102  0.69240922  0.13710983     0.16800
C302        C  0.36446572  0.71137482  0.18887946    -0.32300
C303        C  0.34038783  0.68107622  0.23093389     0.21200
C304        C  0.30422269  0.63420534  0.22183075     0.03400
C305        C  0.28956433  0.61568807  0.17006645    -0.22000
C306        C  0.31390096  0.64585886  0.12806618     0.12500
S307        S  0.37604139  0.72275664  0.08074210    -0.05700
C308        C  0.33793161  0.67151777  0.04424131    -0.09100
C309        C  0.30534149  0.63426639  0.07508464    -0.25700
S310        S  0.28126933  0.60268661  0.27809078    -0.02900
C311        C  0.32156140  0.65271350  0.31487209    -0.16400
C312        C  0.34940230  0.69230900  0.28404285    -0.14400
H313        H  0.39312691  0.74786315  0.19608670     0.21000
H314        H  0.26109857  0.57909954  0.16286779     0.17000
H315        H  0.27585982  0.60078710  0.05997837     0.19500
H316        H  0.37564050  0.72736716  0.29968683     0.12900
C317        C  0.80427460  0.12656850  0.54451419     0.16800
C318        C  0.76438307  0.13251092  0.53748116    -0.32300
C319        C  0.76990055  0.17726799  0.55119948     0.21200
C320        C  0.81294135  0.21423603  0.57199833     0.03400
C321        C  0.85285580  0.20831603  0.57880525    -0.22000
C322        C  0.84753194  0.16380082  0.56432015     0.12500
S323        S  0.80562218  0.07585468  0.52788562    -0.05700
C324        C  0.86540677  0.10548281  0.54684371    -0.09100
C325        C  0.88271642  0.15187229  0.56588153    -0.25700
S326        S  0.81210856  0.26555882  0.58714223    -0.02900
C327        C  0.75355408  0.23701120  0.56423803    -0.16400
C328        C  0.73570645  0.19040188  0.54608959    -0.14400
H329        H  0.73073965  0.10375796  0.52130895     0.21000
H330        H  0.88672631  0.23730324  0.59417932     0.17000
H331        H  0.91948921  0.17615380  0.57850501     0.19500
H332        H  0.69959113  0.16741476  0.53059600     0.12900
C333        C  0.82125398  0.66065670  0.56898062     0.16800
C334        C  0.78642251  0.61660926  0.58892036    -0.32300
C335        C  0.78246566  0.57472971  0.56672894     0.21200
C336        C  0.81183646  0.57659141  0.52631272     0.03400
C337        C  0.84762794  0.62074818  0.50742698    -0.22000
C338        C  0.85165141  0.66269926  0.52973030     0.12500
S339        S  0.82873767  0.71506774  0.58743602    -0.05700
C340        C  0.87384492  0.74115571  0.54241796    -0.09100
C341        C  0.88256673  0.70897941  0.51493971    -0.25700
S342        S  0.79917787  0.52166047  0.50220803    -0.02900
C343        C  0.75448596  0.49607178  0.54775474    -0.16400
C344        C  0.74988717  0.52853488  0.57978752    -0.14400
H345        H  0.76264617  0.61501442  0.61950705     0.21000
H346        H  0.87057262  0.62230488  0.47587075     0.17000
H347        H  0.90844652  0.71870026  0.48401162     0.19500
H348        H  0.72348066  0.51880654  0.61009870     0.12900
C349        C  0.40449117  0.22636009  0.56055526     0.16800
C350        C  0.35899406  0.21911874  0.54656966    -0.32300
C351        C  0.31895664  0.17684325  0.56323781     0.21200
C352        C  0.32398952  0.14342003  0.59290970     0.03400
C353        C  0.36947674  0.15137387  0.60837188    -0.22000
C354        C  0.40952750  0.19348628  0.59138375     0.12500
S355        S  0.45728376  0.27275890  0.53938681    -0.05700
C356        C  0.48633953  0.24800083  0.57320751    -0.09100
C357        C  0.45665864  0.20617343  0.59949275    -0.25700
S358        S  0.27126295  0.09217630  0.60431166    -0.02900
C359        C  0.24198128  0.11598821  0.56883446    -0.16400
C360        C  0.27192867  0.16165527  0.55006726    -0.14400
H361        H  0.35498057  0.24444360  0.52201890     0.21000
H362        H  0.37349889  0.12504051  0.63096372     0.17000
H363        H  0.46886019  0.18518172  0.62119470     0.19500
H364        H  0.26020691  0.18152371  0.52547250     0.12900
C365        C  0.86341519  0.20168850  0.02359821     0.16800
C366        C  0.85404446  0.23912447  0.01445741    -0.32300
C367        C  0.81542200  0.23777371  0.04042630     0.21200
C368        C  0.78811429  0.20152517  0.07525119     0.03400
C369        C  0.79738241  0.16393352  0.08421696    -0.22000
C370        C  0.83524393  0.16460342  0.05707312     0.12500
S371        S  0.90737897  0.19583891  0.99409224    -0.05700
C372        C  0.88688061  0.14212519  0.02598757    -0.09100
C373        C  0.84836408  0.13012537  0.05836526    -0.25700
S374        S  0.74283930  0.20653567  0.10290157    -0.02900
C375        C  0.76003007  0.25701058  0.06568849    -0.16400
C376        C  0.79918851  0.26952379  0.03442091    -0.14400
H377        H  0.87531714  0.26754655  0.98740529     0.21000
H378        H  0.77547566  0.13496832  0.11038902     0.17000
H379        H  0.83046912  0.09757716  0.08098292     0.19500
H380        H  0.81466313  0.30003456  0.00849759     0.12900
C381        C  0.85433455  0.68576543  0.08564444     0.16800
C382        C  0.84746160  0.64159845  0.10376116    -0.32300
C383        C  0.80409154  0.60000882  0.08964677     0.21200
C384        C  0.76913482  0.60247859  0.05902071     0.03400
C385        C  0.77553278  0.64669427  0.04215115    -0.22000
C386        C  0.81892440  0.68816932  0.05596880     0.12500
S387        S  0.90602337  0.73966983  0.09401525    -0.05700
C388        C  0.87965487  0.76584733  0.05727183    -0.09100
C389        C  0.83296665  0.73403499  0.04019467    -0.25700
S390        S  0.72114704  0.54800578  0.04141734    -0.02900
C391        C  0.74794840  0.52151539  0.07632897    -0.16400
C392        C  0.79179024  0.55340691  0.10035801    -0.14400
H393        H  0.87533150  0.63958300  0.12632339     0.21000
H394        H  0.74850146  0.64851681  0.01767329     0.17000
H395        H  0.81125603  0.74351524  0.01534813     0.19500
H396        H  0.81442854  0.54295037  0.12188298     0.12900
C397        C  0.41330479  0.24275175  0.05179766     0.16800
C398        C  0.36671413  0.23341555  0.06134229    -0.32300
C399        C  0.32826631  0.19219567  0.03744532     0.21200
C400        C  0.33586524  0.16142982  0.00578938     0.03400
C401        C  0.38244916  0.17136649  0.99518401    -0.22000
C402        C  0.42089796  0.21278834  0.01867636     0.12500
S403        S  0.46460017  0.28930581  0.07954270    -0.05700
C404        C  0.49654513  0.26875533  0.04516127    -0.09100
C405        C  0.46873649  0.22802130  0.01400909    -0.25700
S406        S  0.28451090  0.11248391  0.98199339    -0.02900
C407        C  0.25227004  0.13412583  0.01395884    -0.16400
C408        C  0.28037985  0.17700049  0.04180894    -0.14400
H409        H  0.36067734  0.25696200  0.08677780     0.21000
H410        H  0.38845524  0.14759586  0.97009474     0.17000
H411        H  0.48277333  0.20973401  0.99071025     0.19500
H412        H  0.26651137  0.19610466  0.06392242     0.12900
C413        C  0.65508767  0.30331790  0.77023895     0.16800
C414        C  0.64105242  0.28522954  0.82138425    -0.32300
C415        C  0.66226768  0.31732228  0.86470157     0.21200
C416        C  0.69639865  0.36483323  0.85727870     0.03400
C417        C  0.71111269  0.38255316  0.80639040    -0.22000
C418        C  0.68924979  0.35083461  0.76315155     0.12500
S419        S  0.63242903  0.27135918  0.71227772    -0.05700
C420        C  0.66741467  0.32333961  0.67776232    -0.09100
C421        C  0.69735163  0.36211632  0.71066580    -0.25700
S422        S  0.71694467  0.39834567  0.91424895    -0.02900
C423        C  0.67827368  0.34845021  0.94925100    -0.16400
C424        C  0.65237221  0.30748594  0.91742083    -0.14400
H425        H  0.61409444  0.24813429  0.82707603     0.21000
H426        H  0.73760280  0.41983029  0.80066175     0.17000
H427        H  0.72484781  0.39669203  0.69802065     0.19500
H428        H  0.62712549  0.27246481  0.93213996     0.12900
C429        C  0.63586137  0.29891729  0.35466198     0.16800
C430        C  0.61607733  0.28816655  0.30293113    -0.32300
C431        C  0.64621930  0.31300290  0.26124664     0.21200
C432        C  0.69413742  0.34615674  0.27052007     0.03400
C433        C  0.71434334  0.35571716  0.32219949    -0.22000
C434        C  0.68389334  0.33159668  0.36405962     0.12500
S435        S  0.60419157  0.27633229  0.41066428    -0.05700
C436        C  0.65561114  0.31248057  0.44796653    -0.09100
C437        C  0.69574769  0.33829131  0.41734023    -0.25700
S438        S  0.72411821  0.37312862  0.21459871    -0.02900
C439        C  0.67112477  0.34054616  0.17812353    -0.16400
C440        C  0.63310318  0.30880048  0.20849096    -0.14400
H441        H  0.57843420  0.26276733  0.29565646     0.21000
H442        H  0.75176233  0.38183258  0.32958756     0.17000
H443        H  0.73143073  0.36236292  0.43331743     0.19500
H444        H  0.59809562  0.28247308  0.19340797     0.12900
loop_ 
_geom_bond_atom_site_label_1 
_geom_bond_atom_site_label_2 
_geom_bond_distance 
_geom_bond_site_symmetry_2 
_ccdc_geom_bond_type 
C1            C3   1.535       .  S
C1            C5   1.542       .  S
C1            C4   1.553       .  S
C1          C439   1.520       .  S
C2            C6   1.531       .  S
C2            C8   1.548       .  S
C2            C7   1.539       .  S
C2          C423   1.521   1_554  S
C3           C11   1.379       .  A
C3            C6   1.388       .  A
C4           C15   1.387       .  A
C4            C7   1.399       .  A
C5           C19   1.384       .  A
C5            C8   1.397       .  A
C6            C9   1.377       .  A
C7           C13   1.379       .  A
C8           C16   1.382       .  A
C9           N10   1.359       .  A
C9           H22   1.082   1_554  S
N10          C11   1.358       .  A
N10         C375   1.434       .  S
C11          H12   1.082       .  S
C13          N14   1.356       .  A
C13          H23   1.082   1_554  S
N14          C15   1.358       .  A
N14         C404   1.437       .  S
C15          H21   1.079       .  S
C16          N17   1.355       .  A
C16          H18   1.079   1_554  S
N17          C19   1.357       .  A
N17         C391   1.435       .  S
C19          H20   1.082       .  S
C24          C26   1.531       .  S
C24          C28   1.548       .  S
C24          C27   1.538       .  S
C24         C436   1.524       .  S
C25          C29   1.533       .  S
C25          C31   1.539       .  S
C25          C30   1.554       .  S
C25         C420   1.525       .  S
C26          C34   1.377       .  A
C26          C29   1.392       .  A
C27          C38   1.377       .  A
C27          C30   1.400       .  A
C28          C42   1.384       .  A
C28          C31   1.397       .  A
C29          C32   1.377       .  A
C30          C36   1.387       .  A
C31          C39   1.381       .  A
C32          N33   1.356       .  A
C32          H45   1.082       .  S
N33          C34   1.357       .  A
N33         C327   1.428       .  S
C34          H35   1.082       .  S
C36          N37   1.357       .  A
C36          H46   1.079       .  S
N37          C38   1.354       .  A
N37         C343   1.435       .  S
C38          H44   1.082       .  S
C39          N40   1.354       .  A
C39          H41   1.082       .  S
N40          C42   1.355       .  A
N40         C356   1.433       .  S
C42          H43   1.079       .  S
C47          C49   1.535       .  S
C47          C51   1.541       .  S
C47          C50   1.542       .  S
C47         C308   1.518   1_556  S
C48          C52   1.546       .  S
C48          C54   1.538       .  S
C48          C53   1.543       .  S
C48         C295   1.518       .  S
C49          C57   1.380       .  A
C49          C52   1.395       .  A
C50          C61   1.379       .  A
C50          C53   1.395       .  A
C51          C65   1.380       .  A
C51          C54   1.392       .  A
C52          C55   1.385       .  A
C53          C59   1.383       .  A
C54          C62   1.382       .  A
C55          N56   1.358       .  A
C55          H68   1.080       .  S
N56          C57   1.357       .  A
N56         C276   1.439       .  S
C57          H58   1.082   1_556  S
C59          N60   1.359       .  A
C59          H69   1.082       .  S
N60          C61   1.358       .  A
N60         C263   1.438       .  S
C61          H67   1.081   1_556  S
C62          N63   1.359       .  A
C62          H64   1.082       .  S
N63          C65   1.357       .  A
N63         C244   1.438       .  S
C65          H66   1.081   1_556  S
C70          C72   1.538       .  S
C70          C74   1.545       .  S
C70          C73   1.549       .  S
C70         C311   1.520       .  S
C71          C75   1.543       .  S
C71          C77   1.539       .  S
C71          C76   1.535       .  S
C71         C292   1.518       .  S
C72          C80   1.380       .  A
C72          C75   1.395       .  A
C73          C84   1.386       .  A
C73          C76   1.393       .  A
C74          C88   1.386       .  A
C74          C77   1.395       .  A
C75          C78   1.383       .  A
C76          C82   1.380       .  A
C77          C85   1.378       .  A
C78          N79   1.357       .  A
C78          H91   1.081       .  S
N79          C80   1.358       .  A
N79         C228   1.435       .  S
C80          H81   1.082       .  S
C82          N83   1.359       .  A
C82          H92   1.082       .  S
N83          C84   1.359       .  A
N83         C199   1.442       .  S
C84          H90   1.079       .  S
C85          N86   1.356       .  A
C85          H87   1.081       .  S
N86          C88   1.358       .  A
N86         C212   1.436       .  S
C88          H89   1.082       .  S
O93         Mg95   2.149       .  S
O93        Mg101   2.167   1_564  S
O93         C128   1.235   1_565  S
C94         H133   1.081       .  S
C94         O107   1.236       .  S
C94         O131   1.270       .  A
Mg95        O124   2.169   1_454  S
Mg95        O139   2.323   1_554  S
Mg95        O135   2.272   1_455  S
Mg95        O106   2.293   1_455  S
O96        Mg138   2.169   1_454  S
O96        Mg121   2.144       .  S
O96         C117   1.236       .  S
O97         C128   1.268       .  A
O97        Mg121   2.291       .  S
C98         O100   1.278       .  A
C98         O112   1.276       .  A
C98         C260   1.479       .  S
O99         C127   1.271   1_455  A
O99        Mg101   2.300   1_565  S
O100       Mg132   2.310       .  S
Mg101       O107   2.145       .  S
Mg101       O115   2.277   1_545  S
Mg101       O103   2.321       .  S
C102        O140   1.274       .  A
C102        O108   1.276   1_554  A
C102        C372   1.475       .  S
O103        C110   1.277   1_556  A
H104        C117   1.081       .  S
C105        H130   1.081       .  S
C105        O119   1.237       .  S
C105        O120   1.271   1_545  A
O106        C129   1.269       .  A
O107       Mg121   2.170   1_556  S
O108       Mg138   2.310       .  S
C109        O122   1.274       .  A
C109        O114   1.274       .  A
C109        C247   1.474       .  S
C110        O137   1.273       .  A
C110        C407   1.479       .  S
Mg111       O118   2.145   1_545  S
Mg111       O119   2.166   1_554  S
Mg111       O112   2.305   1_544  S
Mg111       O113   2.293       .  S
Mg111       O140   2.274       .  S
O113        C117   1.270   1_655  A
O114       Mg121   2.294   1_556  S
O115        C134   1.274       .  A
O116        C136   1.281       .  A
O116       Mg132   2.341   1_554  S
O118       Mg132   2.164   1_554  S
O118        C129   1.235       .  S
O119       Mg138   2.153       .  S
O120       Mg132   2.298       .  S
Mg121       O137   2.276       .  S
O122       Mg138   2.287   1_455  S
H123        C128   1.081   1_565  S
O124       Mg132   2.166       .  S
O124        C127   1.236       .  S
H125        C127   1.081       .  S
H126        C129   1.081       .  S
O131       Mg138   2.294   1_455  S
C134        O139   1.278       .  A
C134        C279   1.479       .  S
O135        C136   1.274       .  A
C136        C388   1.481       .  S
O141       Mg143   2.154   1_545  S
O141       Mg149   2.167       .  S
O141        C176   1.235       .  S
C142        H181   1.081       .  S
C142        O155   1.237       .  S
C142        O179   1.271       .  A
Mg143       O172   2.159       .  S
Mg143       O187   2.295   1_565  S
Mg143       O183   2.285       .  S
Mg143       O154   2.293       .  S
O144       Mg186   2.159   1_545  S
O144       Mg169   2.157       .  S
O144        C165   1.237   1_545  S
O145        C176   1.269   1_455  A
O145       Mg169   2.294       .  S
C146        O148   1.273       .  A
C146        O160   1.280       .  A
C146        C340   1.475       .  S
O147        C175   1.269   1_545  A
O147       Mg149   2.295       .  S
O148       Mg180   2.259       .  S
Mg149       O155   2.145   1_655  S
Mg149       O163   2.266       .  S
Mg149       O151   2.320   1_655  S
C150        O188   1.276       .  A
C150        O156   1.277       .  A
C150        C231   1.480       .  S
O151        C158   1.277       .  A
H152        C165   1.081   1_545  S
C153        H178   1.081   1_655  S
C153        O167   1.235   1_655  S
C153        O168   1.269       .  A
O154        C177   1.270       .  A
O155       Mg169   2.169       .  S
O156       Mg186   2.317       .  S
C157        O170   1.273       .  A
C157        O162   1.277       .  A
C157        C359   1.477       .  S
C158        O185   1.275       .  A
C158        C196   1.478       .  S
Mg159       O166   2.146       .  S
Mg159       O167   2.159   1_655  S
Mg159       O160   2.337       .  S
Mg159       O161   2.303   1_655  S
Mg159       O188   2.284   1_655  S
O161        C165   1.272       .  A
O162       Mg169   2.321       .  S
O163        C182   1.274       .  A
O164        C184   1.277       .  A
O164       Mg180   2.312       .  S
O166       Mg180   2.163       .  S
O166        C177   1.236       .  S
O167       Mg186   2.146       .  S
O168       Mg180   2.291       .  S
Mg169       O185   2.288       .  S
O170       Mg186   2.269   1_545  S
H171        C176   1.081       .  S
O172       Mg180   2.135       .  S
O172        C175   1.236       .  S
H173        C175   1.081       .  S
H174        C177   1.081       .  S
O179       Mg186   2.298   1_545  S
C182        O187   1.274       .  A
C182        C324   1.471       .  S
O183        C184   1.273       .  A
C184        C215   1.478       .  S
C189        C194   1.387       .  A
C189        C190   1.405       .  A
C189        S195   1.711       .  A
C190        C191   1.405       .  A
C190        H201   1.083       .  S
C191        C200   1.376       .  A
C191        C192   1.387       .  A
C192        C193   1.405       .  A
C192        S198   1.711       .  A
C193        C194   1.405       .  A
C193        H202   1.083       .  S
C194        C197   1.376       .  A
S195        C196   1.724       .  A
C196        C197   1.388       .  A
C197        H203   1.083       .  S
S198        C199   1.726       .  A
C199        C200   1.389       .  A
C200        H204   1.083       .  S
C205        C210   1.387       .  A
C205        C206   1.409       .  A
C205        S211   1.717       .  A
C206        C207   1.410       .  A
C206        H217   1.083       .  S
C207        C216   1.379       .  A
C207        C208   1.387       .  A
C208        C209   1.399       .  A
C208        S214   1.704       .  A
C209        C210   1.400       .  A
C209        H218   1.083       .  S
C210        C213   1.369       .  A
S211        C212   1.726       .  A
C212        C213   1.383       .  A
C213        H219   1.083       .  S
S214        C215   1.722       .  A
C215        C216   1.392       .  A
C216        H220   1.083       .  S
C221        C226   1.388       .  A
C221        C222   1.404       .  A
C221        S227   1.711       .  A
C222        C223   1.404       .  A
C222        H233   1.083       .  S
C223        C232   1.374       .  A
C223        C224   1.386       .  A
C224        C225   1.404       .  A
C224        S230   1.710       .  A
C225        C226   1.405       .  A
C225        H234   1.083       .  S
C226        C229   1.374       .  A
S227        C228   1.721       .  A
C228        C229   1.387       .  A
C229        H235   1.083       .  S
S230        C231   1.726       .  A
C231        C232   1.389       .  A
C232        H236   1.083       .  S
C237        C242   1.388       .  A
C237        C238   1.401       .  A
C237        S243   1.707       .  A
C238        C239   1.402       .  A
C238        H249   1.083       .  S
C239        C248   1.370       .  A
C239        C240   1.386       .  A
C240        C241   1.405       .  A
C240        S246   1.713       .  A
C241        C242   1.406       .  A
C241        H250   1.083       .  S
C242        C245   1.375       .  A
S243        C244   1.724       .  A
C244        C245   1.388       .  A
C245        H251   1.083       .  S
S246        C247   1.724       .  A
C247        C248   1.387       .  A
C248        H252   1.083       .  S
C253        C258   1.387       .  A
C253        C254   1.404       .  A
C253        S259   1.708   1_556  A
C254        C255   1.404       .  A
C254        H265   1.083   1_556  S
C255        C264   1.373       .  A
C255        C256   1.387       .  A
C256        C257   1.406       .  A
C256        S262   1.713       .  A
C257        C258   1.406       .  A
C257        H266   1.083       .  S
C258        C261   1.378       .  A
S259        C260   1.725   1_554  A
C260        C261   1.389       .  A
C261        H267   1.083       .  S
S262        C263   1.724       .  A
C263        C264   1.387       .  A
C264        H268   1.083       .  S
C269        C274   1.387       .  A
C269        C270   1.405       .  A
C269        S275   1.711       .  A
C270        C271   1.406       .  A
C270        H281   1.083       .  S
C271        C280   1.376       .  A
C271        C272   1.387       .  A
C272        C273   1.403   1_556  A
C272        S278   1.708   1_556  A
C273        C274   1.404   1_554  A
C273        H282   1.083       .  S
C274        C277   1.374       .  A
S275        C276   1.725       .  A
C276        C277   1.387       .  A
C277        H283   1.083   1_556  S
S278        C279   1.724   1_554  A
C279        C280   1.390       .  A
C280        H284   1.083       .  S
C285        C290   1.384       .  A
C285        C286   1.403       .  A
C285        S291   1.704       .  A
C286        C287   1.403       .  A
C286        H297   1.083       .  S
C287        C296   1.371       .  A
C287        C288   1.385       .  A
C288        C289   1.401       .  A
C288        S294   1.703       .  A
C289        C290   1.402       .  A
C289        H298   1.083       .  S
C290        C293   1.369       .  A
S291        C292   1.729       .  A
C292        C293   1.389       .  A
C293        H299   1.080       .  S
S294        C295   1.727       .  A
C295        C296   1.390       .  A
C296        H300   1.082       .  S
C301        C306   1.384       .  A
C301        C302   1.402       .  A
C301        S307   1.705       .  A
C302        C303   1.403       .  A
C302        H313   1.083       .  S
C303        C312   1.371       .  A
C303        C304   1.384       .  A
C304        C305   1.401       .  A
C304        S310   1.703       .  A
C305        C306   1.402       .  A
C305        H314   1.083       .  S
C306        C309   1.369       .  A
S307        C308   1.728       .  A
C308        C309   1.391       .  A
C309        H315   1.080       .  S
S310        C311   1.726       .  A
C311        C312   1.390       .  A
C312        H316   1.082       .  S
C317        C322   1.387       .  A
C317        C318   1.401       .  A
C317        S323   1.706       .  A
C318        C319   1.402       .  A
C318        H329   1.083       .  S
C319        C328   1.369       .  A
C319        C320   1.389       .  A
C320        C321   1.401       .  A
C320        S326   1.708       .  A
C321        C322   1.402       .  A
C321        H330   1.083       .  S
C322        C325   1.369       .  A
S323        C324   1.724       .  A
C324        C325   1.386       .  A
C325        H331   1.083       .  S
S326        C327   1.720       .  A
C327        C328   1.382       .  A
C328        H332   1.083       .  S
C333        C338   1.387       .  A
C333        C334   1.402       .  A
C333        S339   1.706       .  A
C334        C335   1.402       .  A
C334        H345   1.083       .  S
C335        C344   1.372       .  A
C335        C336   1.388       .  A
C336        C337   1.404       .  A
C336        S342   1.709       .  A
C337        C338   1.404       .  A
C337        H346   1.083       .  S
C338        C341   1.375       .  A
S339        C340   1.724       .  A
C340        C341   1.388       .  A
C341        H347   1.083       .  S
S342        C343   1.724       .  A
C343        C344   1.385       .  A
C344        H348   1.083       .  S
C349        C354   1.388       .  A
C349        C350   1.403       .  A
C349        S355   1.709       .  A
C350        C351   1.404       .  A
C350        H361   1.083       .  S
C351        C360   1.373       .  A
C351        C352   1.387       .  A
C352        C353   1.403       .  A
C352        S358   1.709       .  A
C353        C354   1.404       .  A
C353        H362   1.083       .  S
C354        C357   1.373       .  A
S355        C356   1.721       .  A
C356        C357   1.385       .  A
C357        H363   1.083       .  S
S358        C359   1.725       .  A
C359        C360   1.388       .  A
C360        H364   1.083       .  S
C365        C370   1.387       .  A
C365        C366   1.401       .  A
C365        S371   1.707   1_554  A
C366        C367   1.402       .  A
C366        H377   1.083   1_554  S
C367        C376   1.370       .  A
C367        C368   1.388       .  A
C368        C369   1.403       .  A
C368        S374   1.711       .  A
C369        C370   1.404       .  A
C369        H378   1.083       .  S
C370        C373   1.373       .  A
S371        C372   1.724   1_556  A
C372        C373   1.388       .  A
C373        H379   1.083       .  S
S374        C375   1.723       .  A
C375        C376   1.385       .  A
C376        H380   1.083       .  S
C381        C386   1.386       .  A
C381        C382   1.406       .  A
C381        S387   1.710       .  A
C382        C383   1.406       .  A
C382        H393   1.083       .  S
C383        C392   1.377       .  A
C383        C384   1.388       .  A
C384        C385   1.403       .  A
C384        S390   1.708       .  A
C385        C386   1.403       .  A
C385        H394   1.083       .  S
C386        C389   1.375       .  A
S387        C388   1.727       .  A
C388        C389   1.388       .  A
C389        H395   1.083       .  S
S390        C391   1.721       .  A
C391        C392   1.387       .  A
C392        H396   1.083       .  S
C397        C402   1.388       .  A
C397        C398   1.405       .  A
C397        S403   1.712       .  A
C398        C399   1.405       .  A
C398        H409   1.083       .  S
C399        C408   1.375       .  A
C399        C400   1.386       .  A
C400        C401   1.404   1_554  A
C400        S406   1.710   1_554  A
C401        C402   1.405   1_556  A
C401        H410   1.083       .  S
C402        C405   1.374       .  A
S403        C404   1.723       .  A
C404        C405   1.387       .  A
C405        H411   1.083   1_554  S
S406        C407   1.725   1_556  A
C407        C408   1.389       .  A
C408        H412   1.083       .  S
C413        C418   1.383       .  A
C413        C414   1.405       .  A
C413        S419   1.706       .  A
C414        C415   1.405       .  A
C414        H425   1.083       .  S
C415        C424   1.374       .  A
C415        C416   1.384       .  A
C416        C417   1.400       .  A
C416        S422   1.700       .  A
C417        C418   1.400       .  A
C417        H426   1.083       .  S
C418        C421   1.369       .  A
S419        C420   1.733       .  A
C420        C421   1.388       .  A
C421        H427   1.076       .  S
S422        C423   1.725       .  A
C423        C424   1.392       .  A
C424        H428   1.083       .  S
C429        C434   1.384       .  A
C429        C430   1.401       .  A
C429        S435   1.702       .  A
C430        C431   1.402       .  A
C430        H441   1.083       .  S
C431        C440   1.371       .  A
C431        C432   1.384       .  A
C432        C433   1.404       .  A
C432        S438   1.706       .  A
C433        C434   1.405       .  A
C433        H442   1.083       .  S
C434        C437   1.374       .  A
S435        C436   1.726       .  A
C436        C437   1.392       .  A
C437        H443   1.083       .  S
S438        C439   1.731       .  A
C439        C440   1.390       .  A
C440        H444   1.076       .  S
