geometry optimzed in LAMMPS
_audit_creation_date              2020-12-01 
_audit_creation_method            'lammps2cif' 
_symmetry_space_group_name_H-M    'P1' 
_symmetry_Int_Tables_number       1 
_symmetry_cell_setting            triclinic 
loop_ 
_symmetry_equiv_pos_as_xyz 
  x,y,z 
_cell_length_a                    27.8118962 
_cell_length_b                    28.274450316768288 
_cell_length_c                    41.65416432008234 
_cell_angle_alpha                 90.00195596549916 
_cell_angle_beta                  105.18803011665048 
_cell_angle_gamma                 90.00197326245434 
loop_ 
_atom_site_label 
_atom_site_type_symbol 
_atom_site_fract_x 
_atom_site_fract_y 
_atom_site_fract_z 
_atom_site_charge 
O1          O  0.24994788  0.31296787  0.02945563    -0.56700
C2          C  0.21290063  0.33268953  0.12240746     0.76000
O3          O  0.22414529  0.18556818  0.08797132    -0.57800
C4          C  0.25426509  0.27575021  0.01346362     0.75900
C5          C  0.35473797  0.25783104  0.11355816     0.78300
Cd6        Cd  0.25039336  0.26765785  0.08143481     1.37500
O7          O  0.21444716  0.34431499  0.09327864    -0.56600
O8          O  0.33694116  0.29568874  0.09914252    -0.55500
C9          C  0.17799445  0.19286666  0.07574099     0.78300
O10         O  0.32426339  0.22476647  0.11399917    -0.57800
O11         O  0.22964860  0.29225276  0.13241959    -0.56300
O12         O  0.25516859  0.23694104  0.02854524    -0.56300
O13         O  0.16536360  0.23453007  0.06587159    -0.55400
O14         O  0.26220764  0.31302532  0.46308988    -0.56700
C15         C  0.29919430  0.33282819  0.37007552     0.76000
O16         O  0.28793057  0.18571246  0.40447336    -0.57800
C17         C  0.25785078  0.27578106  0.47904356     0.75900
C18         C  0.15736255  0.25801381  0.37895123     0.78300
Cd19       Cd  0.26171626  0.26779775  0.41106524     1.37500
O20         O  0.29767572  0.34446371  0.39920928    -0.56600
O21         O  0.17517129  0.29586159  0.39338161    -0.55500
C22         C  0.33408173  0.19298674  0.41672598     0.78300
O23         O  0.18782724  0.22494796  0.37849545    -0.57800
O24         O  0.28243709  0.29238811  0.36007473    -0.56300
O25         O  0.25690637  0.23699899  0.46392221    -0.56300
O26         O  0.34672828  0.23463536  0.42663033    -0.55400
C27         C  0.35761678  0.43360061  0.33111960     0.87700
C28         C  0.33295202  0.41014074  0.35602006    -0.52600
C29         C  0.32054982  0.36378986  0.34881971     0.10600
C30         C  0.33379530  0.34552693  0.31729451     0.21500
C31         C  0.40253855  0.40209694  0.33109597    -0.53300
C32         C  0.39011403  0.35562580  0.32405086     0.10700
C33         C  0.32100550  0.42625821  0.29699464    -0.52800
C34         C  0.30837450  0.38031469  0.28973696     0.11200
H35         H  0.32650170  0.42828611  0.37748430     0.15800
H36         H  0.32345703  0.30799592  0.31125473     0.01500
H37         H  0.44061455  0.41507386  0.33693550     0.16100
H38         H  0.30559286  0.45513095  0.28019550     0.15900
C39         C  0.35787303  0.57733001  0.33092026     0.87700
C40         C  0.40284114  0.60875611  0.33084150    -0.52600
C41         C  0.39048834  0.65524688  0.32378994     0.10600
C42         C  0.33417239  0.66541802  0.31705558     0.21500
C43         C  0.33331853  0.60087899  0.35582826    -0.53300
C44         C  0.32098368  0.64722326  0.34861738     0.10700
C45         C  0.32121562  0.58466142  0.29680660    -0.52800
C46         C  0.30862764  0.63061232  0.28952100     0.11200
H47         H  0.44089394  0.59573232  0.33669620     0.15800
H48         H  0.32387645  0.70295608  0.31101754     0.01500
H49         H  0.32688515  0.58278628  0.37731507     0.16100
H50         H  0.30569621  0.55576897  0.28005350     0.15900
O51         O  0.21343733  0.66640986  0.09305037    -0.56700
C52         C  0.25394713  0.73488610  0.01323312     0.76000
O53         O  0.22357418  0.82491419  0.08790650    -0.57800
C54         C  0.21218041  0.67803454  0.12223927     0.75900
C55         C  0.35391107  0.75259852  0.11331206     0.78300
Cd56       Cd  0.24961293  0.74288637  0.08114760     1.37500
O57         O  0.24944408  0.69764447  0.02915087    -0.56600
O58         O  0.33607186  0.71468502  0.09899518    -0.55500
C59         C  0.17741609  0.81773295  0.07562570     0.78300
O60         O  0.32348439  0.78574478  0.11364350    -0.57800
O61         O  0.25467478  0.77367000  0.02832103    -0.56300
O62         O  0.22911734  0.71841640  0.13223740    -0.56300
O63         O  0.16468039  0.77615568  0.06558389    -0.55400
O64         O  0.26230195  0.69769936  0.46291059    -0.56700
C65         C  0.29973664  0.67818101  0.36991792     0.76000
O66         O  0.18843448  0.78593805  0.37847332    -0.57800
C67         C  0.25794473  0.73491884  0.47889206     0.75900
C68         C  0.33452334  0.81785973  0.41655062     0.78300
Cd69       Cd  0.26228229  0.74303986  0.41098476     1.37500
O70         O  0.29848092  0.66658322  0.39911054    -0.56600
O71         O  0.34723962  0.77625795  0.42653597    -0.55500
C72         C  0.15799297  0.75280275  0.37880552     0.78300
O73         O  0.28836375  0.82507804  0.40430713    -0.57800
O74         O  0.28277918  0.71854612  0.35989728    -0.56300
O75         O  0.25736302  0.77373714  0.46386911    -0.56300
O76         O  0.17581472  0.71489170  0.39312870    -0.55400
C77         C  0.15440845  0.43348733  0.16128052     0.87700
C78         C  0.17910236  0.41000060  0.13640762    -0.52600
C79         C  0.19152140  0.36366416  0.14364060     0.10600
C80         C  0.17826068  0.34543738  0.17516831     0.21500
C81         C  0.10949430  0.40197325  0.16131122    -0.53300
C82         C  0.12193656  0.35551471  0.16839121     0.10700
C83         C  0.19100512  0.42619911  0.19541832    -0.52800
C84         C  0.20365116  0.38026612  0.20270795     0.11200
H85         H  0.18555869  0.42811829  0.11493612     0.15800
H86         H  0.18861225  0.30791740  0.18123266     0.01500
H87         H  0.07141283  0.41493309  0.15545333     0.16100
H88         H  0.20639922  0.45509856  0.21220085     0.15900
C89         C  0.15410969  0.57721583  0.16132255     0.87700
C90         C  0.10913418  0.60863268  0.16139104    -0.52600
C91         C  0.12146949  0.65513573  0.16840718     0.10600
C92         C  0.17778040  0.66532778  0.17512225     0.21500
C93         C  0.17863862  0.60073421  0.13638780    -0.53300
C94         C  0.19095684  0.64709310  0.14356441     0.10700
C95         C  0.19077891  0.58460270  0.19542405    -0.52800
C96         C  0.20335251  0.63056417  0.20267657     0.11200
H97         H  0.07108625  0.59559226  0.15555376     0.15800
H98         H  0.18806265  0.70287621  0.18113449     0.01500
H99         H  0.18506673  0.58261162  0.11490953     0.16100
H100        H  0.20631511  0.55573738  0.21219512     0.15900
O101        O  0.04857579  0.16641412  0.14927532    -0.56700
C102        C  0.50805151  0.23489863  0.22908464     0.76000
O103        O  0.03843801  0.32492083  0.15441771    -0.57800
C104        C  0.04982998  0.17803116  0.12008505     0.75900
C105        C  0.40810045  0.25260733  0.12900184     0.78300
Cd106      Cd  0.01239556  0.24289291  0.16117139     1.37500
O107        O  0.01253880  0.19765593  0.21316231    -0.56600
O108        O  0.42593022  0.21470317  0.14333361    -0.55500
C109        C  0.08459660  0.31773872  0.16669197     0.78300
O110        O  0.43853535  0.28574353  0.12865759    -0.57800
O111        O  0.50734647  0.27368323  0.21400259    -0.56300
O112        O  0.03288767  0.21840774  0.11008345    -0.56300
O113        O  0.09733074  0.27616134  0.17672948    -0.55400
O114        O  0.49966389  0.19771031  0.27939734    -0.56700
C115        C  0.46226320  0.17817952  0.37240564     0.76000
O116        O  0.07356053  0.28592451  0.36385487    -0.57800
C117        C  0.00404682  0.23493008  0.26342447     0.75900
C118        C  0.42747026  0.31786104  0.32577117     0.78300
Cd119      Cd  0.99970542  0.24304063  0.33133268     1.37500
O120        O  0.46351300  0.16657959  0.34321161    -0.56600
O121        O  0.41475052  0.27625994  0.31578093    -0.55500
C122        C  0.10399887  0.25279415  0.36350654     0.78300
O123        O  0.47363009  0.32507822  0.33801789    -0.57800
O124        O  0.47921895  0.21854801  0.38242426    -0.56300
O125        O  0.00464869  0.27374630  0.27845521    -0.56300
O126        O  0.08617243  0.21489133  0.34916865    -0.55400
C127        C  0.40413120  0.07732777  0.41140615     0.87700
C128        C  0.35916348  0.10875187  0.41148356    -0.52600
C129        C  0.37151658  0.15524420  0.41853484     0.10600
C130        C  0.42783391  0.16541807  0.42527161     0.21500
C131        C  0.42868796  0.10087510  0.38649900    -0.53300
C132        C  0.44102299  0.14722101  0.39370956     0.10700
C133        C  0.44078670  0.08466347  0.44552012    -0.52800
C134        C  0.45337686  0.13061492  0.45280657     0.11200
H135        H  0.32111033  0.09572587  0.40562665     0.15800
H136        H  0.43813076  0.20295748  0.43131003     0.01500
H137        H  0.43512001  0.08278056  0.36501149     0.16100
H138        H  0.45630477  0.05577294  0.46227262     0.15900
C139        C  0.40438520  0.93359852  0.41120619     0.87700
C140        C  0.42904309  0.91013936  0.38630178    -0.52600
C141        C  0.44144268  0.86378888  0.39349842     0.10600
C142        C  0.42820047  0.84552493  0.42502397     0.21500
C143        C  0.35946213  0.90209493  0.41123109    -0.53300
C144        C  0.37188302  0.85562399  0.41827227     0.09900
C145        C  0.44100071  0.92625614  0.44532912    -0.52800
C146        C  0.45362861  0.88031235  0.45258290     0.11200
H147        H  0.43549277  0.92828561  0.36483824     0.15800
H148        H  0.43853587  0.80799428  0.43106031     0.01500
H149        H  0.32138726  0.91507182  0.40539467     0.16100
H150        H  0.45641852  0.95512889  0.46212936     0.15900
O151        O  0.01205074  0.81297418  0.21285603    -0.56700
C152        C  0.04911491  0.83268068  0.11990666     0.76000
O153        O  0.03786982  0.68556760  0.15434269    -0.57800
C154        C  0.00773160  0.77575834  0.22884799     0.75900
C155        C  0.40727459  0.75782206  0.12875439     0.78300
Cd156      Cd  0.01161885  0.76765420  0.16088002     1.37500
O157        O  0.04756868  0.84430893  0.14903555    -0.56600
O158        O  0.42507815  0.79568883  0.14315674    -0.55500
C159        C  0.08401930  0.69286772  0.16658145     0.78300
O160        O  0.43774302  0.72474896  0.12832628    -0.57800
O161        O  0.03236815  0.79224106  0.10989489    -0.56300
O162        O  0.50683259  0.73694713  0.21376771    -0.56300
O163        O  0.09664900  0.73453135  0.17645574    -0.55400
O164        O  0.49978789  0.81303702  0.27922222    -0.56700
C165        C  0.46279812  0.83283064  0.37224033     0.76000
O166        O  0.47407291  0.68572290  0.33784229    -0.57800
C167        C  0.00414182  0.77579197  0.26326718     0.75900
C168        C  0.10463075  0.75802529  0.36335995     0.78300
Cd169      Cd  0.00027921  0.76780887  0.33124598     1.37500
O170        O  0.46431848  0.84446918  0.34310796    -0.56600
O171        O  0.08682438  0.79588058  0.34894385    -0.55500
C172        C  0.42792100  0.69299148  0.32559277     0.78300
O173        O  0.07416475  0.72495352  0.36380132    -0.57800
O174        O  0.97955529  0.79239153  0.38223791    -0.56300
O175        O  0.00508196  0.73701084  0.27838690    -0.56300
O176        O  0.41527125  0.73463672  0.31568611    -0.55400
C177        C  0.10790134  0.07721207  0.08100063     0.87700
C178        C  0.15287774  0.10863112  0.08093269    -0.52600
C179        C  0.14054396  0.15513318  0.07391822     0.10600
C180        C  0.08423377  0.16532254  0.06720448     0.21500
C181        C  0.08337382  0.10073066  0.10593672    -0.53300
C182        C  0.07105662  0.14708861  0.09876156     0.10700
C183        C  0.07123128  0.08459678  0.04689932    -0.52800
C184        C  0.05865930  0.13055790  0.03964889     0.11200
H185        H  0.19092498  0.09559252  0.08676816     0.15800
H186        H  0.07395299  0.20287058  0.06119360     0.01500
H187        H  0.07694419  0.08260794  0.12741487     0.16100
H188        H  0.05569329  0.05573014  0.03012697     0.15900
C189        C  0.10760870  0.93348172  0.08103767     0.87700
C190        C  0.08291252  0.90999375  0.10590855    -0.52600
C191        C  0.07049226  0.86365642  0.09867344     0.10600
C192        C  0.08375271  0.84543038  0.06714496     0.21500
C193        C  0.15252215  0.90196898  0.08100656    -0.53300
C194        C  0.14007784  0.85550936  0.07392429     0.10700
C195        C  0.07101321  0.92619165  0.04689921    -0.52800
C196        C  0.05836459  0.88025843  0.03960683     0.11200
H197        H  0.07645677  0.92811127  0.12738116     0.15800
H198        H  0.07339888  0.80790945  0.06107849     0.01500
H199        H  0.19060431  0.91493004  0.08686679     0.16100
H200        H  0.05562009  0.95509065  0.03011854     0.15900
C201        C  0.11904685  0.02670147  0.08751210    -0.12100
C202        C  0.11893014  0.98396478  0.08754789    -0.13700
C203        C  0.49014352  0.86782360  0.48302215    -0.12100
C204        C  0.02185474  0.86781111  0.00915389    -0.13700
C205        C  0.49007383  0.14306793  0.48320048    -0.12100
C206        C  0.02196101  0.14305234  0.00926697    -0.13700
C207        C  0.39297091  0.02682877  0.40484347    -0.12100
C208        C  0.39308099  0.98409267  0.40474945    -0.13700
C209        C  0.14308591  0.48396859  0.15477254    -0.12100
C210        C  0.14296474  0.52670487  0.15480920    -0.13700
C211        C  0.27193464  0.64306626  0.25912719    -0.12100
C212        C  0.24004987  0.64305754  0.23305995    -0.13700
C213        C  0.24015671  0.36781779  0.23316103    -0.12100
C214        C  0.27186380  0.36782715  0.25929450    -0.13700
C215        C  0.36892317  0.48409570  0.33757863    -0.12100
C216        C  0.36903278  0.52683202  0.33748344    -0.13700
O217        O  0.24994787  0.31296801  0.52945566    -0.56700
C218        C  0.21290061  0.33268950  0.62240749     0.76000
O219        O  0.22414522  0.18556820  0.58797138    -0.57800
C220        C  0.25426515  0.27575040  0.51346364     0.75900
C221        C  0.35473795  0.25783102  0.61355822     0.78300
Cd222      Cd  0.25039326  0.26765780  0.58143483     1.37500
O223        O  0.21444707  0.34431492  0.59327866    -0.56600
O224        O  0.33694107  0.29568871  0.59914257    -0.55500
C225        C  0.17799439  0.19286662  0.57574098     0.78300
O226        O  0.32426345  0.22476638  0.61399918    -0.57800
O227        O  0.22964850  0.29225270  0.63241962    -0.56300
O228        O  0.25516845  0.23694117  0.52854516    -0.56300
O229        O  0.16536349  0.23452997  0.56587145    -0.55400
O230        O  0.26220788  0.31302524  0.96308997    -0.56700
C231        C  0.29919434  0.33282828  0.87007557     0.76000
O232        O  0.28793063  0.18571248  0.90447347    -0.57800
C233        C  0.25785070  0.27578094  0.97904352     0.75900
C234        C  0.15736264  0.25801382  0.87895126     0.78300
Cd235      Cd  0.26171645  0.26779775  0.91106527     1.37500
O236        O  0.29767558  0.34446390  0.89920927    -0.56600
O237        O  0.17517134  0.29586158  0.89338170    -0.55500
C238        C  0.33408181  0.19298679  0.91672604     0.78300
O239        O  0.18782739  0.22494802  0.87849547    -0.57800
O240        O  0.28243734  0.29238812  0.86007482    -0.56300
O241        O  0.25690616  0.23699893  0.96392208    -0.56300
O242        O  0.34672840  0.23463543  0.92663032    -0.55400
C243        C  0.35761677  0.43360064  0.83111962     0.87700
C244        C  0.33295207  0.41014080  0.85602013    -0.52600
C245        C  0.32054990  0.36378989  0.84881976     0.10600
C246        C  0.33379533  0.34552694  0.81729453     0.21500
C247        C  0.40253869  0.40209700  0.83109598    -0.53300
C248        C  0.39011404  0.35562583  0.82405076     0.10700
C249        C  0.32100546  0.42625814  0.79699472    -0.52800
C250        C  0.30837440  0.38031469  0.78973700     0.11200
H251        H  0.32650175  0.42828604  0.87748419     0.15800
H252        H  0.32345705  0.30799605  0.81125479     0.01500
H253        H  0.44061386  0.41507360  0.83693542     0.16100
H254        H  0.30559258  0.45513130  0.78019533     0.15900
C255        C  0.35787297  0.57733005  0.83092016     0.87700
C256        C  0.40284108  0.60875610  0.83084133    -0.52600
C257        C  0.39048837  0.65524687  0.82378977     0.10600
C258        C  0.33417243  0.66541801  0.81705554     0.21500
C259        C  0.33331857  0.60087897  0.85582827    -0.53300
C260        C  0.32098376  0.64722331  0.84861738     0.10700
C261        C  0.32121550  0.58466142  0.79680656    -0.52800
C262        C  0.30862757  0.63061234  0.78952097     0.11200
H263        H  0.44089408  0.59573223  0.83669605     0.15800
H264        H  0.32387646  0.70295638  0.81101748     0.01500
H265        H  0.32688520  0.58278644  0.87731469     0.16100
H266        H  0.30569597  0.55576895  0.78005348     0.15900
O267        O  0.21343717  0.66641001  0.59305038    -0.56700
C268        C  0.25394718  0.73488608  0.51323309     0.76000
O269        O  0.22357418  0.82491414  0.58790654    -0.57800
C270        C  0.21218033  0.67803458  0.62223930     0.75900
C271        C  0.35391111  0.75259849  0.61331210     0.78300
Cd272      Cd  0.24961281  0.74288635  0.58114748     1.37500
O273        O  0.24944421  0.69764444  0.52915085    -0.56600
O274        O  0.33607180  0.71468500  0.59899524    -0.55500
C275        C  0.17741609  0.81773296  0.57562573     0.78300
O276        O  0.32348447  0.78574479  0.61364351    -0.57800
O277        O  0.25467492  0.77367000  0.52832101    -0.56300
O278        O  0.22911727  0.71841642  0.63223746    -0.56300
O279        O  0.16468032  0.77615570  0.56558392    -0.55400
O280        O  0.26230176  0.69769950  0.96291049    -0.56700
C281        C  0.29973656  0.67818099  0.86991792     0.76000
O282        O  0.18843435  0.78593818  0.87847321    -0.57800
C283        C  0.25794466  0.73491890  0.97889207     0.75900
C284        C  0.33452334  0.81785970  0.91655063     0.78300
Cd285      Cd  0.26228219  0.74304009  0.91098477     1.37500
O286        O  0.29848080  0.66658323  0.89911053    -0.56600
O287        O  0.34723970  0.77625793  0.92653598    -0.55500
C288        C  0.15799291  0.75280278  0.87880538     0.78300
O289        O  0.28836373  0.82507801  0.90430721    -0.57800
O290        O  0.28277907  0.71854610  0.85989728    -0.56300
O291        O  0.25736291  0.77373726  0.96386917    -0.56300
O292        O  0.17581471  0.71489176  0.89312855    -0.55400
C293        C  0.15440844  0.43348733  0.66128053     0.87700
C294        C  0.17910250  0.41000067  0.63640766    -0.52600
C295        C  0.19152156  0.36366421  0.64364065     0.10600
C296        C  0.17826077  0.34543748  0.67516829     0.21500
C297        C  0.10949420  0.40197324  0.66131117    -0.53300
C298        C  0.12193662  0.35551466  0.66839115     0.10700
C299        C  0.19100505  0.42619919  0.69541833    -0.52800
C300        C  0.20365127  0.38026620  0.70270792     0.11200
H301        H  0.18555884  0.42811834  0.61493617     0.15800
H302        H  0.18861258  0.30791719  0.68123277     0.01500
H303        H  0.07141340  0.41493278  0.65545343     0.16100
H304        H  0.20639899  0.45509870  0.71220095     0.15900
C305        C  0.15410960  0.57721581  0.66132255     0.87700
C306        C  0.10913410  0.60863271  0.66139108    -0.52600
C307        C  0.12146947  0.65513577  0.66840722     0.10600
C308        C  0.17778035  0.66532774  0.67512228     0.21500
C309        C  0.17863853  0.60073420  0.63638784    -0.53300
C310        C  0.19095678  0.64709307  0.64356443     0.10700
C311        C  0.19077879  0.58460272  0.69542398    -0.52800
C312        C  0.20335243  0.63056410  0.70267658     0.11200
H313        H  0.07108627  0.59559234  0.65555383     0.15800
H314        H  0.18806266  0.70287630  0.68113456     0.01500
H315        H  0.18506674  0.58261142  0.61490940     0.16100
H316        H  0.20631525  0.55573684  0.71219533     0.15900
O317        O  0.04857605  0.16641409  0.64927530    -0.56700
C318        C  0.50805163  0.23489871  0.72908468     0.76000
O319        O  0.03843798  0.32492082  0.65441775    -0.57800
C320        C  0.04983002  0.17803114  0.62008500     0.75900
C321        C  0.40810040  0.25260733  0.62900189     0.78300
Cd322      Cd  0.01239565  0.24289287  0.66117127     1.37500
O323        O  0.01253877  0.19765593  0.71316232    -0.56600
O324        O  0.42593017  0.21470315  0.64333364    -0.55500
C325        C  0.08459658  0.31773871  0.66669197     0.78300
O326        O  0.43853530  0.28574351  0.62865762    -0.57800
O327        O  0.50734645  0.27368327  0.71400257    -0.56300
O328        O  0.03288760  0.21840769  0.61008340    -0.56300
O329        O  0.09733071  0.27616133  0.67672952    -0.55400
O330        O  0.49966417  0.19771034  0.77939738    -0.56700
C331        C  0.46226318  0.17817953  0.87240555     0.76000
O332        O  0.07356051  0.28592445  0.86385493    -0.57800
C333        C  0.00404707  0.23493013  0.76342453     0.75900
C334        C  0.42747029  0.31786103  0.82577110     0.78300
Cd335      Cd  0.99970537  0.24304059  0.83133270     1.37500
O336        O  0.46351322  0.16657951  0.84321159    -0.56600
O337        O  0.41475047  0.27625989  0.81578095    -0.55500
C338        C  0.10399892  0.25279418  0.86350657     0.78300
O339        O  0.47363012  0.32507815  0.83801785    -0.57800
O340        O  0.47921877  0.21854810  0.88242413    -0.56300
O341        O  0.00464892  0.27374632  0.77845527    -0.56300
O342        O  0.08617254  0.21489135  0.84916867    -0.55400
C343        C  0.40413125  0.07732775  0.91140618     0.87700
C344        C  0.35916367  0.10875191  0.91148361    -0.52600
C345        C  0.37151663  0.15524422  0.91853488     0.10600
C346        C  0.42783397  0.16541804  0.92527160     0.21500
C347        C  0.42868805  0.10087501  0.88649896    -0.53300
C348        C  0.44102296  0.14722103  0.89370951     0.10700
C349        C  0.44078676  0.08466340  0.94552017    -0.52800
C350        C  0.45337697  0.13061489  0.95280658     0.11200
H351        H  0.32110969  0.09572563  0.90562659     0.15800
H352        H  0.43813082  0.20295758  0.93131003     0.01500
H353        H  0.43512005  0.08278074  0.86501188     0.16100
H354        H  0.45630462  0.05577311  0.96227255     0.15900
C355        C  0.40438511  0.93359848  0.91120618     0.87700
C356        C  0.42904304  0.91013935  0.88630180    -0.52600
C357        C  0.44144276  0.86378892  0.89349845     0.10600
C358        C  0.42820047  0.84552490  0.92502396     0.21500
C359        C  0.35946194  0.90209490  0.91123106    -0.53300
C360        C  0.37188301  0.85562393  0.91827220     0.09900
C361        C  0.44100058  0.92625602  0.94532904    -0.52800
C362        C  0.45362853  0.88031233  0.95258293     0.11200
H363        H  0.43549261  0.92828561  0.86483820     0.15800
H364        H  0.43853592  0.80799430  0.93106031     0.01500
H365        H  0.32138785  0.91507151  0.90539486     0.16100
H366        H  0.45641877  0.95512947  0.96212961     0.15900
O367        O  0.01205096  0.81297421  0.71285606    -0.56700
C368        C  0.04911503  0.83268084  0.61990671     0.76000
O369        O  0.03786985  0.68556763  0.65434256    -0.57800
C370        C  0.00773161  0.77575837  0.72884797     0.75900
C371        C  0.40727465  0.75782201  0.62875442     0.78300
Cd372      Cd  0.01161901  0.76765421  0.66088004     1.37500
O373        O  0.04756863  0.84430916  0.64903556    -0.56600
O374        O  0.42507829  0.79568880  0.64315674    -0.55500
C375        C  0.08401929  0.69286778  0.66658144     0.78300
O376        O  0.43774302  0.72474886  0.62832633    -0.57800
O377        O  0.03236839  0.79224120  0.60989497    -0.56300
O378        O  0.50683243  0.73694706  0.71376768    -0.56300
O379        O  0.09664896  0.73453141  0.67645577    -0.55400
O380        O  0.49978797  0.81303700  0.77922214    -0.56700
C381        C  0.46279806  0.83283069  0.87224030     0.76000
O382        O  0.47407303  0.68572277  0.83784209    -0.57800
C383        C  0.00414180  0.77579197  0.76326714     0.75900
C384        C  0.10463072  0.75802527  0.86335982     0.78300
Cd385      Cd  0.00027934  0.76780910  0.83124599     1.37500
O386        O  0.46431834  0.84446928  0.84310791    -0.56600
O387        O  0.08682437  0.79588064  0.84894387    -0.55500
C388        C  0.42792110  0.69299142  0.82559262     0.78300
O389        O  0.07416472  0.72495347  0.86380115    -0.57800
O390        O  0.97955520  0.79239156  0.88223785    -0.56300
O391        O  0.00508195  0.73701086  0.77838691    -0.56300
O392        O  0.41527138  0.73463672  0.81568611    -0.55400
C393        C  0.10790131  0.07721202  0.58100064     0.87700
C394        C  0.15287771  0.10863106  0.58093274    -0.52600
C395        C  0.14054394  0.15513312  0.57391824     0.10600
C396        C  0.08423378  0.16532247  0.56720443     0.21500
C397        C  0.08337372  0.10073063  0.60593669    -0.53300
C398        C  0.07105654  0.14708858  0.59876148     0.10700
C399        C  0.07123122  0.08459672  0.54689934    -0.52800
C400        C  0.05865934  0.13055785  0.53964883     0.11200
H401        H  0.19092502  0.09559243  0.58676825     0.15800
H402        H  0.07395307  0.20287067  0.56119351     0.01500
H403        H  0.07694412  0.08260801  0.62741483     0.16100
H404        H  0.05569316  0.05573002  0.53012698     0.15900
C405        C  0.10760870  0.93348175  0.58103763     0.87700
C406        C  0.08291248  0.90999385  0.60590851    -0.52600
C407        C  0.07049227  0.86365653  0.59867342     0.10600
C408        C  0.08375273  0.84543041  0.56714494     0.21500
C409        C  0.15252232  0.90196908  0.58100661    -0.53300
C410        C  0.14007786  0.85550940  0.57392429     0.10700
C411        C  0.07101333  0.92619167  0.54689914    -0.52800
C412        C  0.05836464  0.88025850  0.53960680     0.11200
H413        H  0.07645686  0.92811122  0.62738104     0.15800
H414        H  0.07339897  0.80790975  0.56107849     0.01500
H415        H  0.19060351  0.91492982  0.58686674     0.16100
H416        H  0.05562024  0.95509068  0.53011833     0.15900
C417        C  0.11904692  0.02670145  0.58751215    -0.12100
C418        C  0.11893012  0.98396478  0.58754788    -0.13700
C419        C  0.49014347  0.86782355  0.98302217    -0.12100
C420        C  0.02185483  0.86781124  0.50915384    -0.13700
C421        C  0.49007386  0.14306789  0.98320057    -0.12100
C422        C  0.02196117  0.14305233  0.50926685    -0.13700
C423        C  0.39297085  0.02682874  0.90484352    -0.12100
C424        C  0.39308087  0.98409263  0.90474948    -0.13700
C425        C  0.14308580  0.48396856  0.65477257    -0.12100
C426        C  0.14296461  0.52670484  0.65480923    -0.13700
C427        C  0.27193451  0.64306623  0.75912720    -0.12100
C428        C  0.24004972  0.64305748  0.73305997    -0.13700
C429        C  0.24015665  0.36781784  0.73316105    -0.12100
C430        C  0.27186368  0.36782711  0.75929455    -0.13700
C431        C  0.36892307  0.48409576  0.83757861    -0.12100
C432        C  0.36903266  0.52683207  0.83748331    -0.13700
O433        O  0.74994792  0.31296792  0.02945564    -0.56700
C434        C  0.71290062  0.33268955  0.12240746     0.76000
O435        O  0.72414534  0.18556816  0.08797132    -0.57800
C436        C  0.75426516  0.27575028  0.01346364     0.75900
C437        C  0.85473791  0.25783105  0.11355818     0.78300
Cd438      Cd  0.75039318  0.26765785  0.08143481     1.37500
O439        O  0.71444723  0.34431501  0.09327866    -0.56600
O440        O  0.83694110  0.29568873  0.09914251    -0.55500
C441        C  0.67799449  0.19286664  0.07574099     0.78300
O442        O  0.82426333  0.22476648  0.11399916    -0.57800
O443        O  0.72964836  0.29225271  0.13241957    -0.56300
O444        O  0.75516863  0.23694110  0.02854525    -0.56300
O445        O  0.66536361  0.23453005  0.06587158    -0.55400
O446        O  0.76220771  0.31302532  0.46308988    -0.56700
C447        C  0.79919428  0.33282819  0.37007553     0.76000
O448        O  0.78793063  0.18571240  0.40447336    -0.57800
C449        C  0.75785085  0.27578106  0.47904356     0.75900
C450        C  0.65736262  0.25801381  0.37895123     0.78300
Cd451      Cd  0.76171631  0.26779774  0.41106524     1.37500
O452        O  0.79767551  0.34446374  0.39920925    -0.56600
O453        O  0.67517135  0.29586158  0.39338161    -0.55500
C454        C  0.83408178  0.19298668  0.41672599     0.78300
O455        O  0.68782731  0.22494796  0.37849545    -0.57800
O456        O  0.78243718  0.29238809  0.36007474    -0.56300
O457        O  0.75690644  0.23699899  0.46392221    -0.56300
O458        O  0.84672834  0.23463530  0.42663032    -0.55400
C459        C  0.85761673  0.43360061  0.33111960     0.87700
C460        C  0.83295206  0.41014073  0.35602009    -0.52600
C461        C  0.82054984  0.36378986  0.34881973     0.10600
C462        C  0.83379529  0.34552691  0.31729451     0.21500
C463        C  0.90253852  0.40209695  0.33109594    -0.53300
C464        C  0.89011404  0.35562580  0.32405085     0.10700
C465        C  0.82100538  0.42625824  0.29699464    -0.52800
C466        C  0.80837447  0.38031468  0.28973697     0.11200
H467        H  0.82650179  0.42828610  0.37748432     0.15800
H468        H  0.82345699  0.30799607  0.31125476     0.01500
H469        H  0.94061457  0.41507389  0.33693548     0.16100
H470        H  0.80559277  0.45513077  0.28019563     0.15900
C471        C  0.85787303  0.57733002  0.33092025     0.87700
C472        C  0.90284112  0.60875612  0.33084151    -0.52600
C473        C  0.89048836  0.65524688  0.32378993     0.10600
C474        C  0.83417241  0.66541802  0.31705558     0.21500
C475        C  0.83331854  0.60087899  0.35582827    -0.53300
C476        C  0.82098372  0.64722328  0.34861741     0.10700
C477        C  0.82121565  0.58466142  0.29680658    -0.52800
C478        C  0.80862764  0.63061233  0.28952100     0.11200
H479        H  0.94089409  0.59573225  0.33669626     0.15800
H480        H  0.82387649  0.70295619  0.31101752     0.01500
H481        H  0.82688517  0.58278626  0.37731502     0.16100
H482        H  0.80569623  0.55576898  0.28005349     0.15900
O483        O  0.71343740  0.66640984  0.09305039    -0.56700
C484        C  0.75394720  0.73488610  0.01323313     0.76000
O485        O  0.72357410  0.82491420  0.08790655    -0.57800
C486        C  0.71218040  0.67803452  0.12223927     0.75900
C487        C  0.85391107  0.75259855  0.11331204     0.78300
Cd488      Cd  0.74961275  0.74288638  0.08114760     1.37500
O489        O  0.74944411  0.69764447  0.02915087    -0.56600
O490        O  0.83607186  0.71468504  0.09899518    -0.55500
C491        C  0.67741604  0.81773295  0.07562569     0.78300
O492        O  0.82348437  0.78574479  0.11364349    -0.57800
O493        O  0.75467482  0.77367000  0.02832104    -0.56300
O494        O  0.72911710  0.71841645  0.13223738    -0.56300
O495        O  0.66468035  0.77615568  0.06558386    -0.55400
O496        O  0.76230169  0.69769937  0.46291056    -0.56700
C497        C  0.79973661  0.67818104  0.36991794     0.76000
O498        O  0.68843447  0.78593805  0.37847330    -0.57800
C499        C  0.75794472  0.73491885  0.47889208     0.75900
C500        C  0.83452331  0.81785975  0.41655063     0.78300
Cd501      Cd  0.76228208  0.74304009  0.41098475     1.37500
O502        O  0.79848066  0.66658325  0.39911051    -0.56600
O503        O  0.84723959  0.77625795  0.42653597    -0.55500
C504        C  0.65799293  0.75280277  0.37880551     0.78300
O505        O  0.78836373  0.82507807  0.40430713    -0.57800
O506        O  0.78277925  0.71854617  0.35989730    -0.56300
O507        O  0.75736311  0.77373717  0.46386915    -0.56300
O508        O  0.67581458  0.71489172  0.39312873    -0.55400
C509        C  0.65440839  0.43348732  0.16128052     0.87700
C510        C  0.67910238  0.41000063  0.13640763    -0.52600
C511        C  0.69152145  0.36366420  0.14364061     0.10600
C512        C  0.67826069  0.34543739  0.17516830     0.21500
C513        C  0.60949425  0.40197321  0.16131120    -0.53300
C514        C  0.62193652  0.35551469  0.16839118     0.10700
C515        C  0.69100497  0.42619909  0.19541833    -0.52800
C516        C  0.70365115  0.38026613  0.20270795     0.11200
H517        H  0.68555871  0.42811831  0.11493617     0.15800
H518        H  0.68861232  0.30791742  0.18123266     0.01500
H519        H  0.57141267  0.41493306  0.15545330     0.16100
H520        H  0.70639906  0.45509872  0.21220096     0.15900
C521        C  0.65410965  0.57721583  0.16132255     0.87700
C522        C  0.60913419  0.60863272  0.16139102    -0.52600
C523        C  0.62146954  0.65513575  0.16840717     0.10600
C524        C  0.67778045  0.66532777  0.17512224     0.21500
C525        C  0.67863866  0.60073417  0.13638782    -0.53300
C526        C  0.69095690  0.64709305  0.14356442     0.10700
C527        C  0.69077880  0.58460272  0.19542405    -0.52800
C528        C  0.70335252  0.63056415  0.20267656     0.11200
H529        H  0.57108628  0.59559232  0.15555375     0.15800
H530        H  0.68806273  0.70287620  0.18113449     0.01500
H531        H  0.68506678  0.58261159  0.11490953     0.16100
H532        H  0.70631498  0.55573720  0.21219526     0.15900
O533        O  0.54857585  0.16641412  0.14927533    -0.56700
C534        C  0.00805145  0.23489871  0.22908463     0.76000
O535        O  0.53843793  0.32492065  0.15441773    -0.57800
C536        C  0.54983000  0.17803113  0.12008505     0.75900
C537        C  0.90810041  0.25260734  0.12900186     0.78300
Cd538      Cd  0.51239562  0.24289288  0.16117139     1.37500
O539        O  0.51253887  0.19765587  0.21316231    -0.56600
O540        O  0.92593019  0.21470317  0.14333360    -0.55500
C541        C  0.58459657  0.31773865  0.16669196     0.78300
O542        O  0.93853531  0.28574353  0.12865758    -0.57800
O543        O  0.00734640  0.27368330  0.21400259    -0.56300
O544        O  0.53288774  0.21840774  0.11008345    -0.56300
O545        O  0.59733082  0.27616130  0.17672949    -0.55400
O546        O  0.99966396  0.19771033  0.27939733    -0.56700
C547        C  0.96226326  0.17817952  0.37240564     0.76000
O548        O  0.57356059  0.28592450  0.36385486    -0.57800
C549        C  0.50404686  0.23493006  0.26342447     0.75900
C550        C  0.92747030  0.31786104  0.32577117     0.78300
Cd551      Cd  0.49970538  0.24304063  0.33133268     1.37500
O552        O  0.96351306  0.16657959  0.34321162    -0.56600
O553        O  0.91475058  0.27625993  0.31578093    -0.55500
C554        C  0.60399892  0.25279414  0.36350653     0.78300
O555        O  0.97363013  0.32507823  0.33801788    -0.57800
O556        O  0.97921901  0.21854802  0.38242426    -0.56300
O557        O  0.50464876  0.27374627  0.27845520    -0.56300
O558        O  0.58617247  0.21489133  0.34916865    -0.55400
C559        C  0.90413128  0.07732777  0.41140615     0.87700
C560        C  0.85916355  0.10875183  0.41148356    -0.52600
C561        C  0.87151664  0.15524417  0.41853484     0.10600
C562        C  0.92783397  0.16541806  0.42527161     0.21500
C563        C  0.92868803  0.10087507  0.38649896    -0.53300
C564        C  0.94102306  0.14722102  0.39370956     0.10700
C565        C  0.94078678  0.08466347  0.44552012    -0.52800
C566        C  0.95337694  0.13061492  0.45280657     0.11200
H567        H  0.82111045  0.09572584  0.40562666     0.15800
H568        H  0.93813082  0.20295751  0.43131003     0.01500
H569        H  0.93511998  0.08278072  0.36501169     0.16100
H570        H  0.95630484  0.05577294  0.46227262     0.15900
C571        C  0.90438515  0.93359851  0.41120618     0.87700
C572        C  0.92904313  0.91013936  0.38630181    -0.52600
C573        C  0.94144273  0.86378889  0.39349844     0.10600
C574        C  0.92820043  0.84552494  0.42502397     0.21500
C575        C  0.85946192  0.90209497  0.41123104    -0.53300
C576        C  0.87188299  0.85562397  0.41827225     0.09900
C577        C  0.94100053  0.92625610  0.44532913    -0.52800
C578        C  0.95362849  0.88031234  0.45258295     0.11200
H579        H  0.93549285  0.92828561  0.36483828     0.15800
H580        H  0.93853586  0.80799429  0.43106031     0.01500
H581        H  0.82138808  0.91507150  0.40539482     0.16100
H582        H  0.95641843  0.95512905  0.46212945     0.15900
O583        O  0.51205081  0.81297417  0.21285603    -0.56700
C584        C  0.54911491  0.83268077  0.11990668     0.76000
O585        O  0.53786989  0.68556760  0.15434268    -0.57800
C586        C  0.50773166  0.77575833  0.22884800     0.75900
C587        C  0.90727456  0.75782208  0.12875438     0.78300
Cd588      Cd  0.51161890  0.76765421  0.16088002     1.37500
O589        O  0.54756850  0.84430902  0.14903554    -0.56600
O590        O  0.92507818  0.79568885  0.14315672    -0.55500
C591        C  0.58401937  0.69286773  0.16658145     0.78300
O592        O  0.93774291  0.72474891  0.12832630    -0.57800
O593        O  0.53236818  0.79224119  0.10989487    -0.56300
O594        O  0.00683252  0.73694713  0.21376770    -0.56300
O595        O  0.59664906  0.73453135  0.17645574    -0.55400
O596        O  0.99978790  0.81303701  0.27922222    -0.56700
C597        C  0.96279818  0.83283065  0.37224034     0.76000
O598        O  0.97407296  0.68572288  0.33784228    -0.57800
C599        C  0.50414178  0.77579197  0.26326718     0.75900
C600        C  0.60463078  0.75802531  0.36335993     0.78300
Cd601      Cd  0.50027924  0.76780887  0.33124598     1.37500
O602        O  0.96431854  0.84446919  0.34310797    -0.56600
O603        O  0.58682443  0.79588060  0.34894383    -0.55500
C604        C  0.92792104  0.69299147  0.32559276     0.78300
O605        O  0.57416480  0.72495353  0.36380131    -0.57800
O606        O  0.47955523  0.79239152  0.38223791    -0.56300
O607        O  0.50508173  0.73701084  0.27838687    -0.56300
O608        O  0.91527130  0.73463672  0.31568611    -0.55400
C609        C  0.60790134  0.07721204  0.08100062     0.87700
C610        C  0.65287774  0.10863109  0.08093271    -0.52600
C611        C  0.64054396  0.15513317  0.07391825     0.10600
C612        C  0.58423378  0.16532248  0.06720450     0.21500
C613        C  0.58337375  0.10073053  0.10593674    -0.53300
C614        C  0.57105655  0.14708853  0.09876154     0.10700
C615        C  0.57123130  0.08459677  0.04689931    -0.52800
C616        C  0.55865935  0.13055790  0.03964888     0.11200
H617        H  0.69092484  0.09559252  0.08676815     0.15800
H618        H  0.57395300  0.20287069  0.06119360     0.01500
H619        H  0.57694429  0.08260801  0.12741466     0.16100
H620        H  0.55569332  0.05573014  0.03012694     0.15900
C621        C  0.60760876  0.93348172  0.08103766     0.87700
C622        C  0.58291261  0.90999378  0.10590856    -0.52600
C623        C  0.57049235  0.86365646  0.09867348     0.10600
C624        C  0.58375271  0.84543040  0.06714498     0.21500
C625        C  0.65252219  0.90196898  0.08100655    -0.53300
C626        C  0.64007782  0.85550937  0.07392425     0.10700
C627        C  0.57101322  0.92619165  0.04689922    -0.52800
C628        C  0.55836453  0.88025845  0.03960686     0.11200
H629        H  0.57645685  0.92811131  0.12738118     0.15800
H630        H  0.57339888  0.80790945  0.06107851     0.01500
H631        H  0.69060433  0.91493000  0.08686678     0.16100
H632        H  0.55562017  0.95509065  0.03011851     0.15900
C633        C  0.61904687  0.02670145  0.08751209    -0.12100
C634        C  0.61893021  0.98396478  0.08754788    -0.13700
C635        C  0.99014357  0.86782362  0.48302213    -0.12100
C636        C  0.52185472  0.86781111  0.00915389    -0.13700
C637        C  0.99007395  0.14306793  0.48320047    -0.12100
C638        C  0.52196105  0.14305235  0.00926697    -0.13700
C639        C  0.89297099  0.02682877  0.40484347    -0.12100
C640        C  0.89308102  0.98409267  0.40474944    -0.13700
C641        C  0.64308584  0.48396859  0.15477254    -0.12100
C642        C  0.64296460  0.52670488  0.15480920    -0.13700
C643        C  0.77193453  0.64306624  0.25912723    -0.12100
C644        C  0.74004985  0.64305753  0.23305995    -0.13700
C645        C  0.74015676  0.36781781  0.23316101    -0.12100
C646        C  0.77186384  0.36782714  0.25929448    -0.13700
C647        C  0.86892304  0.48409571  0.33757862    -0.12100
C648        C  0.86903276  0.52683202  0.33748345    -0.13700
O649        O  0.74994794  0.31296801  0.52945566    -0.56700
C650        C  0.71290060  0.33268950  0.62240749     0.76000
O651        O  0.72414522  0.18556818  0.58797137    -0.57800
C652        C  0.75426521  0.27575040  0.51346364     0.75900
C653        C  0.85473793  0.25783100  0.61355822     0.78300
Cd654      Cd  0.75039331  0.26765781  0.58143483     1.37500
O655        O  0.71444713  0.34431493  0.59327868    -0.56600
O656        O  0.83694113  0.29568870  0.59914256    -0.55500
C657        C  0.67799439  0.19286663  0.57574098     0.78300
O658        O  0.82426335  0.22476643  0.61399921    -0.57800
O659        O  0.72964855  0.29225272  0.63241964    -0.56300
O660        O  0.75516852  0.23694117  0.52854516    -0.56300
O661        O  0.66536353  0.23452998  0.56587144    -0.55400
O662        O  0.76220762  0.31302529  0.96308992    -0.56700
C663        C  0.79919427  0.33282827  0.87007556     0.76000
O664        O  0.78793062  0.18571252  0.90447346    -0.57800
C665        C  0.75785070  0.27578096  0.97904353     0.75900
C666        C  0.65736263  0.25801381  0.87895127     0.78300
Cd667      Cd  0.76171626  0.26779775  0.91106528     1.37500
O668        O  0.79767564  0.34446387  0.89920930    -0.56600
O669        O  0.67517130  0.29586159  0.89338169    -0.55500
C670        C  0.83408179  0.19298680  0.91672603     0.78300
O671        O  0.68782736  0.22494801  0.87849547    -0.57800
O672        O  0.78243710  0.29238816  0.86007481    -0.56300
O673        O  0.75690624  0.23699895  0.96392211    -0.56300
O674        O  0.84672840  0.23463545  0.92663031    -0.55400
C675        C  0.85761682  0.43360063  0.83111963     0.87700
C676        C  0.83295207  0.41014077  0.85602009    -0.52600
C677        C  0.82054984  0.36378990  0.84881974     0.10600
C678        C  0.83379535  0.34552694  0.81729453     0.21500
C679        C  0.90253874  0.40209699  0.83109599    -0.53300
C680        C  0.89011409  0.35562582  0.82405078     0.10700
C681        C  0.82100553  0.42625814  0.79699472    -0.52800
C682        C  0.80837445  0.38031468  0.78973699     0.11200
H683        H  0.82650171  0.42828620  0.87748436     0.15800
H684        H  0.82345707  0.30799603  0.81125479     0.01500
H685        H  0.94061390  0.41507359  0.83693542     0.16100
H686        H  0.80559266  0.45513129  0.78019534     0.15900
C687        C  0.85787303  0.57733005  0.83092016     0.87700
C688        C  0.90284110  0.60875613  0.83084132    -0.52600
C689        C  0.89048834  0.65524689  0.82378976     0.10600
C690        C  0.83417240  0.66541802  0.81705553     0.21500
C691        C  0.83331863  0.60087896  0.85582827    -0.53300
C692        C  0.82098378  0.64722329  0.84861738     0.10700
C693        C  0.82121556  0.58466142  0.79680656    -0.52800
C694        C  0.80862758  0.63061232  0.78952097     0.11200
H695        H  0.94089412  0.59573229  0.83669604     0.15800
H696        H  0.82387639  0.70295624  0.81101749     0.01500
H697        H  0.82688531  0.58278644  0.87731470     0.16100
H698        H  0.80569607  0.55576895  0.78005347     0.15900
O699        O  0.71343724  0.66641001  0.59305038    -0.56700
C700        C  0.75394710  0.73488609  0.51323310     0.76000
O701        O  0.72357423  0.82491416  0.58790654    -0.57800
C702        C  0.71218039  0.67803458  0.62223930     0.75900
C703        C  0.85391111  0.75259846  0.61331210     0.78300
Cd704      Cd  0.74961285  0.74288635  0.58114748     1.37500
O705        O  0.74944402  0.69764444  0.52915083    -0.56600
O706        O  0.83607183  0.71468498  0.59899522    -0.55500
C707        C  0.67741613  0.81773297  0.57562573     0.78300
O708        O  0.82348449  0.78574478  0.61364349    -0.57800
O709        O  0.75467472  0.77367000  0.52832100    -0.56300
O710        O  0.72911733  0.71841642  0.63223746    -0.56300
O711        O  0.66468039  0.77615571  0.56558393    -0.55400
O712        O  0.76230183  0.69769950  0.96291049    -0.56700
C713        C  0.79973661  0.67818098  0.86991792     0.76000
O714        O  0.68843438  0.78593818  0.87847321    -0.57800
C715        C  0.75794474  0.73491890  0.97889207     0.75900
C716        C  0.83452338  0.81785971  0.91655063     0.78300
Cd717      Cd  0.76228226  0.74304009  0.91098477     1.37500
O718        O  0.79848087  0.66658323  0.89911054    -0.56600
O719        O  0.84723976  0.77625794  0.92653598    -0.55500
C720        C  0.65799293  0.75280279  0.87880539     0.78300
O721        O  0.78836378  0.82507800  0.90430721    -0.57800
O722        O  0.78277914  0.71854610  0.85989728    -0.56300
O723        O  0.75736298  0.77373726  0.96386917    -0.56300
O724        O  0.67581475  0.71489176  0.89312855    -0.55400
C725        C  0.65440844  0.43348734  0.66128053     0.87700
C726        C  0.67910249  0.41000067  0.63640764    -0.52600
C727        C  0.69152144  0.36366416  0.64364063     0.10600
C728        C  0.67826064  0.34543748  0.67516829     0.21500
C729        C  0.60949418  0.40197329  0.66131117    -0.53300
C730        C  0.62193653  0.35551471  0.66839116     0.10700
C731        C  0.69100505  0.42619918  0.69541833    -0.52800
C732        C  0.70365114  0.38026618  0.70270795     0.11200
H733        H  0.68555886  0.42811815  0.61493637     0.15800
H734        H  0.68861236  0.30791708  0.68123278     0.01500
H735        H  0.57141325  0.41493291  0.65545338     0.16100
H736        H  0.70639912  0.45509869  0.71220090     0.15900
C737        C  0.65410966  0.57721580  0.66132255     0.87700
C738        C  0.60913415  0.60863267  0.66139108    -0.52600
C739        C  0.62146949  0.65513572  0.66840721     0.10600
C740        C  0.67778039  0.66532773  0.67512227     0.21500
C741        C  0.67863858  0.60073418  0.63638781    -0.53300
C742        C  0.69095684  0.64709308  0.64356443     0.10700
C743        C  0.69077885  0.58460272  0.69542398    -0.52800
C744        C  0.70335249  0.63056410  0.70267658     0.11200
H745        H  0.57108636  0.59559230  0.65555384     0.15800
H746        H  0.68806269  0.70287631  0.68113456     0.01500
H747        H  0.68506669  0.58261159  0.61490953     0.16100
H748        H  0.70631532  0.55573684  0.71219533     0.15900
O749        O  0.54857583  0.16641405  0.64927528    -0.56700
C750        C  0.00805156  0.23489870  0.72908467     0.76000
O751        O  0.53843797  0.32492079  0.65441773    -0.57800
C752        C  0.54983000  0.17803113  0.62008501     0.75900
C753        C  0.90810042  0.25260730  0.62900188     0.78300
Cd754      Cd  0.51239569  0.24289287  0.66117127     1.37500
O755        O  0.51253885  0.19765594  0.71316233    -0.56600
O756        O  0.92593020  0.21470313  0.64333364    -0.55500
C757        C  0.58459657  0.31773871  0.66669197     0.78300
O758        O  0.93853532  0.28574349  0.62865761    -0.57800
O759        O  0.00734638  0.27368327  0.71400257    -0.56300
O760        O  0.53288770  0.21840771  0.61008341    -0.56300
O761        O  0.59733076  0.27616133  0.67672952    -0.55400
O762        O  0.99966419  0.19771035  0.77939738    -0.56700
C763        C  0.96226318  0.17817953  0.87240559     0.76000
O764        O  0.57356052  0.28592445  0.86385492    -0.57800
C765        C  0.50404704  0.23493013  0.76342453     0.75900
C766        C  0.92747035  0.31786103  0.82577110     0.78300
Cd767      Cd  0.49970533  0.24304060  0.83133270     1.37500
O768        O  0.96351299  0.16657953  0.84321158    -0.56600
O769        O  0.91475054  0.27625990  0.81578095    -0.55500
C770        C  0.60399894  0.25279417  0.86350657     0.78300
O771        O  0.97363019  0.32507816  0.83801785    -0.57800
O772        O  0.97921887  0.21854808  0.88242415    -0.56300
O773        O  0.50464868  0.27374632  0.77845525    -0.56300
O774        O  0.58617257  0.21489135  0.84916866    -0.55400
C775        C  0.90413122  0.07732776  0.91140618     0.87700
C776        C  0.85916349  0.10875185  0.91148359    -0.52600
C777        C  0.87151659  0.15524421  0.91853488     0.10600
C778        C  0.92783392  0.16541805  0.92527165     0.21500
C779        C  0.92868809  0.10087503  0.88649900    -0.53300
C780        C  0.94102304  0.14722103  0.89370959     0.10700
C781        C  0.94078672  0.08466338  0.94552020    -0.52800
C782        C  0.95337686  0.13061490  0.95280663     0.11200
H783        H  0.82111034  0.09572586  0.90562670     0.15800
H784        H  0.93813076  0.20295745  0.93131007     0.01500
H785        H  0.93512009  0.08278086  0.86501198     0.16100
H786        H  0.95630457  0.05577326  0.96227246     0.15900
C787        C  0.90438517  0.93359849  0.91120618     0.87700
C788        C  0.92904310  0.91013934  0.88630180    -0.52600
C789        C  0.94144277  0.86378889  0.89349845     0.10600
C790        C  0.92820046  0.84552491  0.92502395     0.21500
C791        C  0.85946197  0.90209492  0.91123106    -0.53300
C792        C  0.87188303  0.85562394  0.91827220     0.09900
C793        C  0.94100064  0.92625602  0.94532904    -0.52800
C794        C  0.95362856  0.88031232  0.95258293     0.11200
H795        H  0.93549272  0.92828561  0.86483821     0.15800
H796        H  0.93853587  0.80799416  0.93106033     0.01500
H797        H  0.82138792  0.91507154  0.90539485     0.16100
H798        H  0.95641887  0.95512946  0.96212960     0.15900
O799        O  0.51205099  0.81297410  0.71285606    -0.56700
C800        C  0.54911501  0.83268081  0.61990671     0.76000
O801        O  0.53786981  0.68556759  0.65434254    -0.57800
C802        C  0.50773161  0.77575827  0.72884796     0.75900
C803        C  0.90727461  0.75782199  0.62875445     0.78300
Cd804      Cd  0.51161886  0.76765419  0.66088005     1.37500
O805        O  0.54756871  0.84430914  0.64903558    -0.56600
O806        O  0.92507816  0.79568878  0.64315678    -0.55500
C807        C  0.58401927  0.69286768  0.66658144     0.78300
O808        O  0.93774305  0.72474892  0.62832634    -0.57800
O809        O  0.53236816  0.79224125  0.60989495    -0.56300
O810        O  0.00683239  0.73694719  0.71376766    -0.56300
O811        O  0.59664894  0.73453129  0.67645579    -0.55400
O812        O  0.99978779  0.81303703  0.77922212    -0.56700
C813        C  0.96279811  0.83283070  0.87224030     0.76000
O814        O  0.97407296  0.68572283  0.83784212    -0.57800
C815        C  0.50414179  0.77579192  0.76326713     0.75900
C816        C  0.60463071  0.75802527  0.86335984     0.78300
Cd817      Cd  0.50027917  0.76780888  0.83124599     1.37500
O818        O  0.96431842  0.84446933  0.84310793    -0.56600
O819        O  0.58682431  0.79588061  0.84894386    -0.55500
C820        C  0.92792107  0.69299146  0.82559261     0.78300
O821        O  0.57416471  0.72495345  0.86380115    -0.57800
O822        O  0.47955512  0.79239155  0.88223785    -0.56300
O823        O  0.50508190  0.73701084  0.77838690    -0.56300
O824        O  0.91527143  0.73463677  0.81568609    -0.55400
C825        C  0.60790129  0.07721203  0.58100064     0.87700
C826        C  0.65287769  0.10863108  0.58093273    -0.52600
C827        C  0.64054391  0.15513315  0.57391824     0.10600
C828        C  0.58423371  0.16532249  0.56720443     0.21500
C829        C  0.58337374  0.10073064  0.60593671    -0.53300
C830        C  0.57105653  0.14708857  0.59876150     0.10700
C831        C  0.57123124  0.08459674  0.54689932    -0.52800
C832        C  0.55865929  0.13055785  0.53964883     0.11200
H833        H  0.69092492  0.09559249  0.58676822     0.15800
H834        H  0.57395294  0.20287055  0.56119353     0.01500
H835        H  0.57694420  0.08260801  0.62741485     0.16100
H836        H  0.55569320  0.05573002  0.53012697     0.15900
C837        C  0.60760865  0.93348176  0.58103762     0.87700
C838        C  0.58291249  0.90999380  0.60590849    -0.52600
C839        C  0.57049232  0.86365649  0.59867343     0.10600
C840        C  0.58375274  0.84543038  0.56714493     0.21500
C841        C  0.65252214  0.90196905  0.58100658    -0.53300
C842        C  0.64007789  0.85550942  0.57392428     0.10700
C843        C  0.57101319  0.92619169  0.54689913    -0.52800
C844        C  0.55836460  0.88025848  0.53960680     0.11200
H845        H  0.57645680  0.92811137  0.62738120     0.15800
H846        H  0.57339902  0.80790972  0.56107849     0.01500
H847        H  0.69060432  0.91493016  0.58686689     0.16100
H848        H  0.55562009  0.95509052  0.53011847     0.15900
C849        C  0.61904681  0.02670145  0.58751215    -0.12100
C850        C  0.61893008  0.98396477  0.58754788    -0.13700
C851        C  0.99014350  0.86782354  0.98302217    -0.12100
C852        C  0.52185468  0.86781123  0.50915389    -0.13700
C853        C  0.99007384  0.14306789  0.98320056    -0.12100
C854        C  0.52196101  0.14305230  0.50926688    -0.13700
C855        C  0.89297090  0.02682874  0.90484351    -0.12100
C856        C  0.89308095  0.98409263  0.90474948    -0.13700
C857        C  0.64308587  0.48396858  0.65477257    -0.12100
C858        C  0.64296469  0.52670484  0.65480923    -0.13700
C859        C  0.77193456  0.64306622  0.75912719    -0.12100
C860        C  0.74004978  0.64305748  0.73305996    -0.13700
C861        C  0.74015666  0.36781783  0.73316104    -0.12100
C862        C  0.77186373  0.36782711  0.75929452    -0.13700
C863        C  0.86892313  0.48409576  0.83757861    -0.12100
C864        C  0.86903273  0.52683207  0.83748331    -0.13700
loop_ 
_geom_bond_atom_site_label_1 
_geom_bond_atom_site_label_2 
_geom_bond_distance 
_geom_bond_site_symmetry_2 
_ccdc_geom_bond_type 
O1            C4   1.268       .  A
O1           Cd6   2.513       .  S
C2           O11   1.263       .  A
C2            O7   1.269       .  A
C2           C79   1.476       .  S
O3            C9   1.268       .  A
O3           Cd6   2.469       .  S
C4           O12   1.261       .  A
C4          C233   1.463   1_554  S
C5           O10   1.265       .  A
C5            O8   1.263       .  A
C5          C105   1.462       .  S
Cd6          O13   2.467       .  S
Cd6          O12   2.404       .  S
Cd6          O11   2.443       .  S
Cd6           O7   2.490       .  S
Cd6          O10   2.464       .  S
Cd6           O8   2.457       .  S
C9           O13   1.267       .  A
C9          C179   1.479       .  S
O14          C17   1.268       .  A
O14         Cd19   2.513       .  S
C15          O24   1.263       .  A
C15          O20   1.269       .  A
C15          C29   1.476       .  S
O16          C22   1.268       .  A
O16         Cd19   2.470       .  S
C17          O25   1.261       .  A
C17         C220   1.463       .  S
C18          O23   1.265       .  A
C18          O21   1.263       .  A
C18         C122   1.462       .  S
Cd19         O26   2.467       .  S
Cd19         O25   2.404       .  S
Cd19         O24   2.443       .  S
Cd19         O20   2.490       .  S
Cd19         O23   2.464       .  S
Cd19         O21   2.457       .  S
C22          O26   1.267       .  A
C22         C129   1.479       .  S
C27          C28   1.536       .  S
C27          C33   1.530       .  S
C27          C31   1.535       .  S
C27         C215   1.471       .  S
C28          H35   1.086       .  S
C28          C29   1.368       .  D
C29          C30   1.543       .  S
C30          C34   1.536       .  S
C30          C32   1.544       .  S
C30          H36   1.111       .  S
C31          H37   1.086       .  S
C31          C32   1.371       .  D
C32         C118   1.478       .  S
C33          H38   1.088       .  S
C33          C34   1.359       .  D
C34         C214   1.445       .  S
C39          C40   1.535       .  S
C39          C45   1.531       .  S
C39          C43   1.535       .  S
C39         C216   1.471       .  S
C40          H47   1.086       .  S
C40          C41   1.371       .  D
C41         C172   1.479       .  S
C41          C42   1.544       .  S
C42          C46   1.537       .  S
C42          C44   1.543       .  S
C42          H48   1.111       .  S
C43          H49   1.086       .  S
C43          C44   1.368       .  D
C44          C65   1.476       .  S
C45          H50   1.088       .  S
C45          C46   1.359       .  D
C46         C211   1.446       .  S
O51          C54   1.269       .  A
O51         Cd56   2.489       .  S
C52          O61   1.261       .  A
C52          O57   1.268       .  A
C52         C283   1.464   1_554  S
O53          C59   1.268       .  A
O53         Cd56   2.468       .  S
C54          O62   1.263       .  A
C54          C94   1.476       .  S
C55          O60   1.265       .  A
C55          O58   1.263       .  A
C55         C155   1.462       .  S
Cd56         O63   2.466       .  S
Cd56         O62   2.443       .  S
Cd56         O61   2.405       .  S
Cd56         O57   2.514       .  S
Cd56         O60   2.463       .  S
Cd56         O58   2.456       .  S
C59          O63   1.267       .  A
C59         C194   1.478       .  S
O64          C67   1.268       .  A
O64         Cd69   2.514       .  S
C65          O74   1.263       .  A
C65          O70   1.269       .  A
O66          C72   1.265       .  A
O66         Cd69   2.463       .  S
C67          O75   1.261       .  A
C67         C268   1.464       .  S
C68          O73   1.268       .  A
C68          O71   1.267       .  A
C68         C144   1.478       .  S
Cd69         O76   2.456       .  S
Cd69         O75   2.405       .  S
Cd69         O74   2.443       .  S
Cd69         O70   2.488       .  S
Cd69         O73   2.468       .  S
Cd69         O71   2.466       .  S
C72          O76   1.263       .  A
C72         C168   1.462       .  S
C77          C78   1.536       .  S
C77          C83   1.530       .  S
C77          C81   1.535       .  S
C77         C209   1.471       .  S
C78          H85   1.086       .  S
C78          C79   1.368       .  D
C79          C80   1.543       .  S
C80          C84   1.536       .  S
C80          C82   1.544       .  S
C80          H86   1.111       .  S
C81          H87   1.086       .  S
C81          C82   1.371       .  D
C82         C109   1.478       .  S
C83          H88   1.088       .  S
C83          C84   1.359       .  D
C84         C213   1.445       .  S
C89          C90   1.535       .  S
C89          C95   1.530       .  S
C89          C93   1.535       .  S
C89         C210   1.471       .  S
C90          H97   1.086       .  S
C90          C91   1.371       .  D
C91         C159   1.479       .  S
C91          C92   1.544       .  S
C92          C96   1.537       .  S
C92          C94   1.543       .  S
C92          H98   1.111       .  S
C93          H99   1.086       .  S
C93          C94   1.368       .  D
C95         H100   1.088       .  S
C95          C96   1.359       .  D
C96         C212   1.446       .  S
O101        C104   1.269       .  A
O101       Cd106   2.489       .  S
C102        O111   1.261       .  A
C102        O539   1.268       .  A
C102        C549   1.464       .  S
O103        C109   1.268       .  A
O103       Cd106   2.468       .  S
C104        O112   1.263       .  A
C104        C182   1.476       .  S
C105        O110   1.265       .  A
C105        O108   1.263       .  A
Cd106       O113   2.466       .  S
Cd106       O112   2.443       .  S
Cd106       O107   2.514       .  S
Cd106       O543   2.405       .  S
Cd106       O542   2.463   1_455  S
Cd106       O540   2.456   1_455  S
O107        C534   1.268       .  A
O108       Cd538   2.456       .  S
C109        O113   1.267       .  A
O110       Cd538   2.463       .  S
O111       Cd538   2.405       .  S
O114        C549   1.268       .  A
O114       Cd551   2.514       .  S
C115        O124   1.263       .  A
C115        O120   1.269       .  A
C115        C132   1.476       .  S
O116        C122   1.265       .  A
O116       Cd119   2.463   1_455  S
C117        O125   1.261       .  A
C117        O546   1.268   1_455  A
C117        C534   1.464       .  S
C118        O123   1.268       .  A
C118        O121   1.267       .  A
Cd119       O126   2.456   1_655  S
Cd119       O125   2.405   1_655  S
Cd119       O546   2.514       .  S
Cd119       O556   2.443       .  S
Cd119       O552   2.489       .  S
Cd119       O555   2.468       .  S
Cd119       O553   2.466       .  S
O120       Cd551   2.489       .  S
O121       Cd551   2.466       .  S
C122        O126   1.263       .  A
O123       Cd551   2.468       .  S
O124       Cd551   2.443       .  S
C127        C128   1.535       .  S
C127        C133   1.531       .  S
C127        C131   1.535       .  S
C127        C207   1.471       .  S
C128        H135   1.086       .  S
C128        C129   1.371       .  D
C129        C130   1.544       .  S
C130        C134   1.537       .  S
C130        C132   1.543       .  S
C130        H136   1.111       .  S
C131        H137   1.086       .  S
C131        C132   1.368       .  D
C133        H138   1.088       .  S
C133        C134   1.359       .  D
C134        C205   1.446       .  S
C139        C140   1.536       .  S
C139        C145   1.530       .  S
C139        C143   1.535       .  S
C139        C208   1.471       .  S
C140        H147   1.086       .  S
C140        C141   1.368       .  D
C141        C165   1.476       .  S
C141        C142   1.543       .  S
C142        C146   1.536       .  S
C142        C144   1.544       .  S
C142        H148   1.111       .  S
C143        H149   1.086       .  S
C143        C144   1.371       .  D
C145        H150   1.088       .  S
C145        C146   1.359       .  D
C146        C203   1.445       .  S
O151        C154   1.268       .  A
O151       Cd156   2.513       .  S
C152        O161   1.263       .  A
C152        O157   1.269       .  A
C152        C191   1.476       .  S
O153        C159   1.268       .  A
O153       Cd156   2.469       .  S
C154        O594   1.261       .  A
C154        C167   1.463       .  S
C155        O160   1.265       .  A
C155        O158   1.263       .  A
Cd156       O163   2.467       .  S
Cd156       O161   2.443       .  S
Cd156       O157   2.490       .  S
Cd156       O594   2.404       .  S
Cd156       O592   2.464   1_455  S
Cd156       O590   2.457   1_455  S
O158       Cd588   2.457       .  S
C159        O163   1.267       .  A
O160       Cd588   2.464       .  S
O162        C586   1.261       .  A
O162       Cd588   2.404       .  S
O164        C599   1.268       .  A
O164       Cd601   2.513       .  S
C165        O170   1.269       .  A
C165        O606   1.263       .  A
O166        C172   1.268       .  A
O166       Cd601   2.469       .  S
C167        O175   1.261       .  A
C167        O596   1.268   1_455  A
C168        O173   1.265       .  A
C168        O171   1.263       .  A
Cd169       O175   2.404       .  S
Cd169       O174   2.443   1_455  S
Cd169       O173   2.464       .  S
Cd169       O171   2.457       .  S
Cd169       O596   2.513   1_455  S
Cd169       O598   2.469   1_455  S
Cd169       O608   2.467   1_455  S
Cd169       O602   2.490   1_455  S
O170       Cd601   2.490       .  S
C172        O176   1.267       .  A
O174        C597   1.263       .  A
O176       Cd601   2.467       .  S
C177        C178   1.535       .  S
C177        C183   1.530       .  S
C177        C181   1.535       .  S
C177        C201   1.471       .  S
C178        H185   1.086       .  S
C178        C179   1.371       .  D
C179        C180   1.544       .  S
C180        C184   1.537       .  S
C180        C182   1.543       .  S
C180        H186   1.111       .  S
C181        H187   1.086       .  S
C181        C182   1.368       .  D
C183        H188   1.088       .  S
C183        C184   1.359       .  D
C184        C206   1.446       .  S
C189        C190   1.536       .  S
C189        C195   1.530       .  S
C189        C193   1.535       .  S
C189        C202   1.471       .  S
C190        H197   1.086       .  S
C190        C191   1.368       .  D
C191        C192   1.543       .  S
C192        C196   1.536       .  S
C192        C194   1.544       .  S
C192        H198   1.111       .  S
C193        H199   1.086       .  S
C193        C194   1.371       .  D
C195        H200   1.088       .  S
C195        C196   1.359       .  D
C196        C204   1.445       .  S
C201        C202   1.208   1_545  T
C203        C852   1.208       .  T
C204        C851   1.208   1_454  T
C205        C854   1.209       .  T
C206        C853   1.209   1_454  T
C207        C208   1.208   1_545  T
C209        C210   1.208       .  T
C211        C212   1.209       .  T
C213        C214   1.208       .  T
C215        C216   1.208       .  T
O217        C220   1.268       .  A
O217       Cd222   2.513       .  S
C218        O227   1.263       .  A
C218        O223   1.269       .  A
C218        C295   1.476       .  S
O219        C225   1.268       .  A
O219       Cd222   2.469       .  S
C220        O228   1.261       .  A
C221        O226   1.265       .  A
C221        O224   1.263       .  A
C221        C321   1.462       .  S
Cd222       O229   2.467       .  S
Cd222       O228   2.404       .  S
Cd222       O227   2.443       .  S
Cd222       O223   2.490       .  S
Cd222       O226   2.464       .  S
Cd222       O224   2.457       .  S
C225        O229   1.267       .  A
C225        C395   1.479       .  S
O230        C233   1.268       .  A
O230       Cd235   2.513       .  S
C231        O240   1.263       .  A
C231        O236   1.269       .  A
C231        C245   1.476       .  S
O232        C238   1.268       .  A
O232       Cd235   2.470       .  S
C233        O241   1.261       .  A
C234        O239   1.265       .  A
C234        O237   1.263       .  A
C234        C338   1.462       .  S
Cd235       O242   2.467       .  S
Cd235       O241   2.404       .  S
Cd235       O240   2.443       .  S
Cd235       O236   2.490       .  S
Cd235       O239   2.464       .  S
Cd235       O237   2.457       .  S
C238        O242   1.267       .  A
C238        C345   1.479       .  S
C243        C244   1.536       .  S
C243        C249   1.530       .  S
C243        C247   1.535       .  S
C243        C431   1.471       .  S
C244        H251   1.086       .  S
C244        C245   1.368       .  D
C245        C246   1.543       .  S
C246        C250   1.536       .  S
C246        C248   1.544       .  S
C246        H252   1.111       .  S
C247        H253   1.086       .  S
C247        C248   1.371       .  D
C248        C334   1.478       .  S
C249        H254   1.088       .  S
C249        C250   1.359       .  D
C250        C430   1.445       .  S
C255        C256   1.535       .  S
C255        C261   1.531       .  S
C255        C259   1.535       .  S
C255        C432   1.471       .  S
C256        H263   1.086       .  S
C256        C257   1.371       .  D
C257        C388   1.479       .  S
C257        C258   1.544       .  S
C258        C262   1.537       .  S
C258        C260   1.543       .  S
C258        H264   1.111       .  S
C259        H265   1.086       .  S
C259        C260   1.368       .  D
C260        C281   1.476       .  S
C261        H266   1.088       .  S
C261        C262   1.359       .  D
C262        C427   1.446       .  S
O267        C270   1.269       .  A
O267       Cd272   2.489       .  S
C268        O277   1.261       .  A
C268        O273   1.268       .  A
O269        C275   1.268       .  A
O269       Cd272   2.468       .  S
C270        O278   1.263       .  A
C270        C310   1.476       .  S
C271        O276   1.265       .  A
C271        O274   1.263       .  A
C271        C371   1.462       .  S
Cd272       O279   2.466       .  S
Cd272       O278   2.443       .  S
Cd272       O277   2.405       .  S
Cd272       O273   2.514       .  S
Cd272       O276   2.463       .  S
Cd272       O274   2.456       .  S
C275        O279   1.267       .  A
C275        C410   1.478       .  S
O280        C283   1.268       .  A
O280       Cd285   2.514       .  S
C281        O290   1.263       .  A
C281        O286   1.269       .  A
O282        C288   1.265       .  A
O282       Cd285   2.463       .  S
C283        O291   1.261       .  A
C284        O289   1.268       .  A
C284        O287   1.267       .  A
C284        C360   1.478       .  S
Cd285       O292   2.456       .  S
Cd285       O291   2.405       .  S
Cd285       O290   2.443       .  S
Cd285       O286   2.488       .  S
Cd285       O289   2.468       .  S
Cd285       O287   2.466       .  S
C288        O292   1.263       .  A
C288        C384   1.462       .  S
C293        C294   1.536       .  S
C293        C299   1.530       .  S
C293        C297   1.535       .  S
C293        C425   1.471       .  S
C294        H301   1.086       .  S
C294        C295   1.368       .  D
C295        C296   1.543       .  S
C296        C300   1.536       .  S
C296        C298   1.544       .  S
C296        H302   1.111       .  S
C297        H303   1.086       .  S
C297        C298   1.371       .  D
C298        C325   1.478       .  S
C299        H304   1.088       .  S
C299        C300   1.359       .  D
C300        C429   1.445       .  S
C305        C306   1.535       .  S
C305        C311   1.530       .  S
C305        C309   1.535       .  S
C305        C426   1.471       .  S
C306        H313   1.086       .  S
C306        C307   1.371       .  D
C307        C375   1.479       .  S
C307        C308   1.544       .  S
C308        C312   1.537       .  S
C308        C310   1.543       .  S
C308        H314   1.111       .  S
C309        H315   1.086       .  S
C309        C310   1.368       .  D
C311        H316   1.088       .  S
C311        C312   1.359       .  D
C312        C428   1.446       .  S
O317        C320   1.269       .  A
O317       Cd322   2.489       .  S
C318        O327   1.261       .  A
C318        O755   1.268       .  A
C318        C765   1.464       .  S
O319        C325   1.268       .  A
O319       Cd322   2.468       .  S
C320        O328   1.263       .  A
C320        C398   1.476       .  S
C321        O326   1.265       .  A
C321        O324   1.263       .  A
Cd322       O329   2.466       .  S
Cd322       O328   2.443       .  S
Cd322       O759   2.405       .  S
Cd322       O323   2.514       .  S
Cd322       O758   2.463   1_455  S
Cd322       O756   2.456   1_455  S
O323        C750   1.268       .  A
O324       Cd754   2.456       .  S
C325        O329   1.267       .  A
O326       Cd754   2.463       .  S
O327       Cd754   2.405       .  S
O330        C765   1.268       .  A
O330       Cd767   2.514       .  S
C331        O340   1.263       .  A
C331        O336   1.269       .  A
C331        C348   1.476       .  S
O332        C338   1.265       .  A
O332       Cd335   2.463   1_455  S
C333        O762   1.268   1_455  A
C333        O341   1.261       .  A
C333        C750   1.464       .  S
C334        O339   1.268       .  A
C334        O337   1.267       .  A
Cd335       O762   2.514       .  S
Cd335       O342   2.456   1_655  S
Cd335       O341   2.405   1_655  S
Cd335       O772   2.443       .  S
Cd335       O768   2.489       .  S
Cd335       O771   2.468       .  S
Cd335       O769   2.466       .  S
O336       Cd767   2.489       .  S
O337       Cd767   2.466       .  S
C338        O342   1.263       .  A
O339       Cd767   2.468       .  S
O340       Cd767   2.443       .  S
C343        C344   1.535       .  S
C343        C349   1.531       .  S
C343        C347   1.535       .  S
C343        C423   1.471       .  S
C344        H351   1.086       .  S
C344        C345   1.371       .  D
C345        C346   1.544       .  S
C346        C350   1.537       .  S
C346        C348   1.543       .  S
C346        H352   1.111       .  S
C347        H353   1.086       .  S
C347        C348   1.368       .  D
C349        H354   1.088       .  S
C349        C350   1.359       .  D
C350        C421   1.446       .  S
C355        C356   1.536       .  S
C355        C361   1.530       .  S
C355        C359   1.535       .  S
C355        C424   1.471       .  S
C356        H363   1.086       .  S
C356        C357   1.368       .  D
C357        C381   1.476       .  S
C357        C358   1.543       .  S
C358        C362   1.536       .  S
C358        C360   1.544       .  S
C358        H364   1.111       .  S
C359        H365   1.086       .  S
C359        C360   1.371       .  D
C361        H366   1.088       .  S
C361        C362   1.359       .  D
C362        C419   1.445       .  S
O367        C370   1.268       .  A
O367       Cd372   2.513       .  S
C368        O377   1.263       .  A
C368        O373   1.269       .  A
C368        C407   1.476       .  S
O369        C375   1.268       .  A
O369       Cd372   2.469       .  S
C370        O810   1.261       .  A
C370        C383   1.463       .  S
C371        O376   1.265       .  A
C371        O374   1.263       .  A
Cd372       O379   2.467       .  S
Cd372       O810   2.404       .  S
Cd372       O377   2.443       .  S
Cd372       O373   2.490       .  S
Cd372       O808   2.464   1_455  S
Cd372       O806   2.457   1_455  S
O374       Cd804   2.457       .  S
C375        O379   1.267       .  A
O376       Cd804   2.464       .  S
O378        C802   1.261       .  A
O378       Cd804   2.404       .  S
O380        C815   1.268       .  A
O380       Cd817   2.513       .  S
C381        O822   1.263       .  A
C381        O386   1.269       .  A
O382        C388   1.268       .  A
O382       Cd817   2.469       .  S
C383        O812   1.268   1_455  A
C383        O391   1.261       .  A
C384        O389   1.265       .  A
C384        O387   1.263       .  A
Cd385       O812   2.513   1_455  S
Cd385       O814   2.469   1_455  S
Cd385       O824   2.467   1_455  S
Cd385       O391   2.404       .  S
Cd385       O390   2.443   1_455  S
Cd385       O818   2.490   1_455  S
Cd385       O389   2.464       .  S
Cd385       O387   2.457       .  S
O386       Cd817   2.490       .  S
C388        O392   1.267       .  A
O390        C813   1.263       .  A
O392       Cd817   2.467       .  S
C393        C394   1.535       .  S
C393        C399   1.530       .  S
C393        C397   1.535       .  S
C393        C417   1.471       .  S
C394        H401   1.086       .  S
C394        C395   1.371       .  D
C395        C396   1.544       .  S
C396        C400   1.537       .  S
C396        C398   1.543       .  S
C396        H402   1.111       .  S
C397        H403   1.086       .  S
C397        C398   1.368       .  D
C399        H404   1.088       .  S
C399        C400   1.359       .  D
C400        C422   1.446       .  S
C405        C406   1.536       .  S
C405        C411   1.530       .  S
C405        C409   1.535       .  S
C405        C418   1.471       .  S
C406        H413   1.086       .  S
C406        C407   1.368       .  D
C407        C408   1.543       .  S
C408        C412   1.536       .  S
C408        C410   1.544       .  S
C408        H414   1.111       .  S
C409        H415   1.086       .  S
C409        C410   1.371       .  D
C411        H416   1.088       .  S
C411        C412   1.359       .  D
C412        C420   1.445       .  S
C417        C418   1.208   1_545  T
C419        C636   1.208   1_556  T
C420        C635   1.208   1_455  T
C421        C638   1.209   1_556  T
C422        C637   1.209   1_455  T
C423        C424   1.208   1_545  T
C425        C426   1.208       .  T
C427        C428   1.209       .  T
C429        C430   1.208       .  T
C431        C432   1.208       .  T
O433        C436   1.268       .  A
O433       Cd438   2.513       .  S
C434        O443   1.263       .  A
C434        O439   1.269       .  A
C434        C511   1.476       .  S
O435        C441   1.268       .  A
O435       Cd438   2.469       .  S
C436        O444   1.261       .  A
C436        C665   1.463   1_554  S
C437        O442   1.265       .  A
C437        O440   1.263       .  A
C437        C537   1.462       .  S
Cd438       O445   2.467       .  S
Cd438       O444   2.404       .  S
Cd438       O443   2.443       .  S
Cd438       O439   2.490       .  S
Cd438       O442   2.464       .  S
Cd438       O440   2.457       .  S
C441        O445   1.267       .  A
C441        C611   1.479       .  S
O446        C449   1.268       .  A
O446       Cd451   2.513       .  S
C447        O456   1.263       .  A
C447        O452   1.269       .  A
C447        C461   1.476       .  S
O448        C454   1.268       .  A
O448       Cd451   2.470       .  S
C449        O457   1.261       .  A
C449        C652   1.463       .  S
C450        O455   1.265       .  A
C450        O453   1.263       .  A
C450        C554   1.462       .  S
Cd451       O458   2.467       .  S
Cd451       O457   2.404       .  S
Cd451       O456   2.443       .  S
Cd451       O452   2.490       .  S
Cd451       O455   2.464       .  S
Cd451       O453   2.457       .  S
C454        O458   1.267       .  A
C454        C561   1.479       .  S
C459        C460   1.536       .  S
C459        C465   1.530       .  S
C459        C463   1.535       .  S
C459        C647   1.471       .  S
C460        H467   1.086       .  S
C460        C461   1.368       .  D
C461        C462   1.543       .  S
C462        C466   1.536       .  S
C462        C464   1.544       .  S
C462        H468   1.111       .  S
C463        H469   1.086       .  S
C463        C464   1.371       .  D
C464        C550   1.478       .  S
C465        H470   1.088       .  S
C465        C466   1.359       .  D
C466        C646   1.445       .  S
C471        C472   1.535       .  S
C471        C477   1.531       .  S
C471        C475   1.535       .  S
C471        C648   1.471       .  S
C472        H479   1.086       .  S
C472        C473   1.371       .  D
C473        C604   1.479       .  S
C473        C474   1.544       .  S
C474        C478   1.537       .  S
C474        C476   1.543       .  S
C474        H480   1.111       .  S
C475        H481   1.086       .  S
C475        C476   1.368       .  D
C476        C497   1.476       .  S
C477        H482   1.088       .  S
C477        C478   1.359       .  D
C478        C643   1.446       .  S
O483        C486   1.269       .  A
O483       Cd488   2.489       .  S
C484        O493   1.261       .  A
C484        O489   1.268       .  A
C484        C715   1.464   1_554  S
O485        C491   1.268       .  A
O485       Cd488   2.468       .  S
C486        O494   1.263       .  A
C486        C526   1.476       .  S
C487        O492   1.265       .  A
C487        O490   1.263       .  A
C487        C587   1.462       .  S
Cd488       O495   2.466       .  S
Cd488       O494   2.443       .  S
Cd488       O493   2.405       .  S
Cd488       O489   2.514       .  S
Cd488       O492   2.463       .  S
Cd488       O490   2.456       .  S
C491        O495   1.267       .  A
C491        C626   1.478       .  S
O496        C499   1.268       .  A
O496       Cd501   2.514       .  S
C497        O506   1.263       .  A
C497        O502   1.269       .  A
O498        C504   1.265       .  A
O498       Cd501   2.463       .  S
C499        O507   1.261       .  A
C499        C700   1.464       .  S
C500        O505   1.268       .  A
C500        O503   1.267       .  A
C500        C576   1.478       .  S
Cd501       O508   2.456       .  S
Cd501       O507   2.405       .  S
Cd501       O506   2.443       .  S
Cd501       O502   2.488       .  S
Cd501       O505   2.468       .  S
Cd501       O503   2.466       .  S
C504        O508   1.263       .  A
C504        C600   1.462       .  S
C509        C510   1.536       .  S
C509        C515   1.530       .  S
C509        C513   1.535       .  S
C509        C641   1.471       .  S
C510        H517   1.086       .  S
C510        C511   1.368       .  D
C511        C512   1.543       .  S
C512        C516   1.536       .  S
C512        C514   1.544       .  S
C512        H518   1.111       .  S
C513        H519   1.086       .  S
C513        C514   1.371       .  D
C514        C541   1.478       .  S
C515        H520   1.088       .  S
C515        C516   1.359       .  D
C516        C645   1.445       .  S
C521        C522   1.535       .  S
C521        C527   1.530       .  S
C521        C525   1.535       .  S
C521        C642   1.471       .  S
C522        H529   1.086       .  S
C522        C523   1.371       .  D
C523        C591   1.479       .  S
C523        C524   1.544       .  S
C524        C528   1.537       .  S
C524        C526   1.543       .  S
C524        H530   1.111       .  S
C525        H531   1.086       .  S
C525        C526   1.368       .  D
C527        H532   1.088       .  S
C527        C528   1.359       .  D
C528        C644   1.446       .  S
O533        C536   1.269       .  A
O533       Cd538   2.489       .  S
C534        O543   1.261       .  A
O535        C541   1.268       .  A
O535       Cd538   2.468       .  S
C536        O544   1.263       .  A
C536        C614   1.476       .  S
C537        O542   1.265       .  A
C537        O540   1.263       .  A
Cd538       O545   2.466       .  S
Cd538       O544   2.443       .  S
Cd538       O539   2.514       .  S
C541        O545   1.267       .  A
C547        O556   1.263       .  A
C547        O552   1.269       .  A
C547        C564   1.476       .  S
O548        C554   1.265       .  A
O548       Cd551   2.463       .  S
C549        O557   1.261       .  A
C550        O555   1.268       .  A
C550        O553   1.267       .  A
Cd551       O558   2.456       .  S
Cd551       O557   2.405       .  S
C554        O558   1.263       .  A
C559        C560   1.535       .  S
C559        C565   1.531       .  S
C559        C563   1.535       .  S
C559        C639   1.471       .  S
C560        H567   1.086       .  S
C560        C561   1.371       .  D
C561        C562   1.544       .  S
C562        C566   1.537       .  S
C562        C564   1.543       .  S
C562        H568   1.111       .  S
C563        H569   1.086       .  S
C563        C564   1.368       .  D
C565        H570   1.088       .  S
C565        C566   1.359       .  D
C566        C637   1.446       .  S
C571        C572   1.536       .  S
C571        C577   1.530       .  S
C571        C575   1.535       .  S
C571        C640   1.471       .  S
C572        H579   1.086       .  S
C572        C573   1.368       .  D
C573        C597   1.476       .  S
C573        C574   1.543       .  S
C574        C578   1.536       .  S
C574        C576   1.544       .  S
C574        H580   1.111       .  S
C575        H581   1.086       .  S
C575        C576   1.371       .  D
C577        H582   1.088       .  S
C577        C578   1.359       .  D
C578        C635   1.445       .  S
O583        C586   1.268       .  A
O583       Cd588   2.513       .  S
C584        O593   1.263       .  A
C584        O589   1.269       .  A
C584        C623   1.476       .  S
O585        C591   1.268       .  A
O585       Cd588   2.469       .  S
C586        C599   1.463       .  S
C587        O592   1.265       .  A
C587        O590   1.263       .  A
Cd588       O595   2.467       .  S
Cd588       O593   2.443       .  S
Cd588       O589   2.490       .  S
C591        O595   1.267       .  A
C597        O602   1.269       .  A
O598        C604   1.268       .  A
C599        O607   1.261       .  A
C600        O605   1.265       .  A
C600        O603   1.263       .  A
Cd601       O607   2.404       .  S
Cd601       O606   2.443       .  S
Cd601       O605   2.464       .  S
Cd601       O603   2.457       .  S
C604        O608   1.267       .  A
C609        C610   1.535       .  S
C609        C615   1.530       .  S
C609        C613   1.535       .  S
C609        C633   1.471       .  S
C610        H617   1.086       .  S
C610        C611   1.371       .  D
C611        C612   1.544       .  S
C612        C616   1.537       .  S
C612        C614   1.543       .  S
C612        H618   1.111       .  S
C613        H619   1.086       .  S
C613        C614   1.368       .  D
C615        H620   1.088       .  S
C615        C616   1.359       .  D
C616        C638   1.446       .  S
C621        C622   1.536       .  S
C621        C627   1.530       .  S
C621        C625   1.535       .  S
C621        C634   1.471       .  S
C622        H629   1.086       .  S
C622        C623   1.368       .  D
C623        C624   1.543       .  S
C624        C628   1.536       .  S
C624        C626   1.544       .  S
C624        H630   1.111       .  S
C625        H631   1.086       .  S
C625        C626   1.371       .  D
C627        H632   1.088       .  S
C627        C628   1.359       .  D
C628        C636   1.445       .  S
C633        C634   1.208   1_545  T
C639        C640   1.208   1_545  T
C641        C642   1.208       .  T
C643        C644   1.209       .  T
C645        C646   1.208       .  T
C647        C648   1.208       .  T
O649        C652   1.268       .  A
O649       Cd654   2.513       .  S
C650        O659   1.263       .  A
C650        O655   1.269       .  A
C650        C727   1.476       .  S
O651        C657   1.268       .  A
O651       Cd654   2.469       .  S
C652        O660   1.261       .  A
C653        O658   1.265       .  A
C653        O656   1.263       .  A
C653        C753   1.462       .  S
Cd654       O661   2.467       .  S
Cd654       O660   2.404       .  S
Cd654       O659   2.443       .  S
Cd654       O655   2.490       .  S
Cd654       O658   2.464       .  S
Cd654       O656   2.457       .  S
C657        O661   1.267       .  A
C657        C827   1.479       .  S
O662        C665   1.268       .  A
O662       Cd667   2.513       .  S
C663        O672   1.263       .  A
C663        O668   1.269       .  A
C663        C677   1.476       .  S
O664        C670   1.268       .  A
O664       Cd667   2.470       .  S
C665        O673   1.261       .  A
C666        O671   1.265       .  A
C666        O669   1.263       .  A
C666        C770   1.462       .  S
Cd667       O674   2.467       .  S
Cd667       O673   2.404       .  S
Cd667       O672   2.443       .  S
Cd667       O668   2.490       .  S
Cd667       O671   2.464       .  S
Cd667       O669   2.457       .  S
C670        O674   1.267       .  A
C670        C777   1.479       .  S
C675        C676   1.536       .  S
C675        C681   1.530       .  S
C675        C679   1.535       .  S
C675        C863   1.471       .  S
C676        H683   1.086       .  S
C676        C677   1.368       .  D
C677        C678   1.543       .  S
C678        C682   1.536       .  S
C678        C680   1.544       .  S
C678        H684   1.111       .  S
C679        H685   1.086       .  S
C679        C680   1.371       .  D
C680        C766   1.478       .  S
C681        H686   1.088       .  S
C681        C682   1.359       .  D
C682        C862   1.445       .  S
C687        C688   1.535       .  S
C687        C693   1.531       .  S
C687        C691   1.535       .  S
C687        C864   1.471       .  S
C688        H695   1.086       .  S
C688        C689   1.371       .  D
C689        C820   1.479       .  S
C689        C690   1.544       .  S
C690        C694   1.537       .  S
C690        C692   1.543       .  S
C690        H696   1.111       .  S
C691        H697   1.086       .  S
C691        C692   1.368       .  D
C692        C713   1.476       .  S
C693        H698   1.088       .  S
C693        C694   1.359       .  D
C694        C859   1.446       .  S
O699        C702   1.269       .  A
O699       Cd704   2.489       .  S
C700        O709   1.261       .  A
C700        O705   1.268       .  A
O701        C707   1.268       .  A
O701       Cd704   2.468       .  S
C702        O710   1.263       .  A
C702        C742   1.476       .  S
C703        O708   1.265       .  A
C703        O706   1.263       .  A
C703        C803   1.462       .  S
Cd704       O711   2.466       .  S
Cd704       O710   2.443       .  S
Cd704       O709   2.405       .  S
Cd704       O705   2.514       .  S
Cd704       O708   2.463       .  S
Cd704       O706   2.456       .  S
C707        O711   1.267       .  A
C707        C842   1.478       .  S
O712        C715   1.268       .  A
O712       Cd717   2.514       .  S
C713        O722   1.263       .  A
C713        O718   1.269       .  A
O714        C720   1.265       .  A
O714       Cd717   2.463       .  S
C715        O723   1.261       .  A
C716        O721   1.268       .  A
C716        O719   1.267       .  A
C716        C792   1.478       .  S
Cd717       O724   2.456       .  S
Cd717       O723   2.405       .  S
Cd717       O722   2.443       .  S
Cd717       O718   2.488       .  S
Cd717       O721   2.468       .  S
Cd717       O719   2.466       .  S
C720        O724   1.263       .  A
C720        C816   1.462       .  S
C725        C726   1.536       .  S
C725        C731   1.530       .  S
C725        C729   1.535       .  S
C725        C857   1.471       .  S
C726        H733   1.086       .  S
C726        C727   1.368       .  D
C727        C728   1.543       .  S
C728        C732   1.536       .  S
C728        C730   1.544       .  S
C728        H734   1.111       .  S
C729        H735   1.086       .  S
C729        C730   1.371       .  D
C730        C757   1.478       .  S
C731        H736   1.088       .  S
C731        C732   1.359       .  D
C732        C861   1.445       .  S
C737        C738   1.535       .  S
C737        C743   1.530       .  S
C737        C741   1.535       .  S
C737        C858   1.471       .  S
C738        H745   1.086       .  S
C738        C739   1.371       .  D
C739        C807   1.479       .  S
C739        C740   1.544       .  S
C740        C744   1.537       .  S
C740        C742   1.543       .  S
C740        H746   1.111       .  S
C741        H747   1.086       .  S
C741        C742   1.368       .  D
C743        H748   1.088       .  S
C743        C744   1.359       .  D
C744        C860   1.446       .  S
O749        C752   1.269       .  A
O749       Cd754   2.489       .  S
C750        O759   1.261       .  A
O751        C757   1.268       .  A
O751       Cd754   2.468       .  S
C752        O760   1.263       .  A
C752        C830   1.476       .  S
C753        O758   1.265       .  A
C753        O756   1.263       .  A
Cd754       O761   2.466       .  S
Cd754       O760   2.443       .  S
Cd754       O755   2.514       .  S
C757        O761   1.267       .  A
C763        O772   1.263       .  A
C763        O768   1.269       .  A
C763        C780   1.476       .  S
O764        C770   1.265       .  A
O764       Cd767   2.463       .  S
C765        O773   1.261       .  A
C766        O771   1.268       .  A
C766        O769   1.267       .  A
Cd767       O774   2.456       .  S
Cd767       O773   2.405       .  S
C770        O774   1.263       .  A
C775        C776   1.535       .  S
C775        C781   1.531       .  S
C775        C779   1.535       .  S
C775        C855   1.471       .  S
C776        H783   1.086       .  S
C776        C777   1.371       .  D
C777        C778   1.544       .  S
C778        C782   1.537       .  S
C778        C780   1.543       .  S
C778        H784   1.111       .  S
C779        H785   1.086       .  S
C779        C780   1.368       .  D
C781        H786   1.088       .  S
C781        C782   1.359       .  D
C782        C853   1.446       .  S
C787        C788   1.536       .  S
C787        C793   1.530       .  S
C787        C791   1.535       .  S
C787        C856   1.471       .  S
C788        H795   1.086       .  S
C788        C789   1.368       .  D
C789        C813   1.476       .  S
C789        C790   1.543       .  S
C790        C794   1.536       .  S
C790        C792   1.544       .  S
C790        H796   1.111       .  S
C791        H797   1.086       .  S
C791        C792   1.371       .  D
C793        H798   1.088       .  S
C793        C794   1.359       .  D
C794        C851   1.445       .  S
O799        C802   1.268       .  A
O799       Cd804   2.513       .  S
C800        O809   1.263       .  A
C800        O805   1.269       .  A
C800        C839   1.476       .  S
O801        C807   1.268       .  A
O801       Cd804   2.469       .  S
C802        C815   1.463       .  S
C803        O808   1.265       .  A
C803        O806   1.263       .  A
Cd804       O811   2.467       .  S
Cd804       O809   2.443       .  S
Cd804       O805   2.490       .  S
C807        O811   1.267       .  A
C813        O818   1.269       .  A
O814        C820   1.268       .  A
C815        O823   1.261       .  A
C816        O821   1.265       .  A
C816        O819   1.263       .  A
Cd817       O823   2.404       .  S
Cd817       O822   2.443       .  S
Cd817       O821   2.464       .  S
Cd817       O819   2.457       .  S
C820        O824   1.267       .  A
C825        C826   1.535       .  S
C825        C831   1.530       .  S
C825        C829   1.535       .  S
C825        C849   1.471       .  S
C826        H833   1.086       .  S
C826        C827   1.371       .  D
C827        C828   1.544       .  S
C828        C832   1.537       .  S
C828        C830   1.543       .  S
C828        H834   1.111       .  S
C829        H835   1.086       .  S
C829        C830   1.368       .  D
C831        H836   1.088       .  S
C831        C832   1.359       .  D
C832        C854   1.446       .  S
C837        C838   1.536       .  S
C837        C843   1.530       .  S
C837        C841   1.535       .  S
C837        C850   1.471       .  S
C838        H845   1.086       .  S
C838        C839   1.368       .  D
C839        C840   1.543       .  S
C840        C844   1.536       .  S
C840        C842   1.544       .  S
C840        H846   1.111       .  S
C841        H847   1.086       .  S
C841        C842   1.371       .  D
C843        H848   1.088       .  S
C843        C844   1.359       .  D
C844        C852   1.445       .  S
C849        C850   1.208   1_545  T
C855        C856   1.208   1_545  T
C857        C858   1.208       .  T
C859        C860   1.209       .  T
C861        C862   1.208       .  T
C863        C864   1.208       .  T
