geometry optimzed in LAMMPS
_audit_creation_date              2020-12-01 
_audit_creation_method            'lammps2cif' 
_symmetry_space_group_name_H-M    'P1' 
_symmetry_Int_Tables_number       1 
_symmetry_cell_setting            triclinic 
loop_ 
_symmetry_equiv_pos_as_xyz 
  x,y,z 
_cell_length_a                    77.72459998 
_cell_length_b                    79.07478873532155 
_cell_length_c                    36.90048984751298 
_cell_angle_alpha                 87.6826311590792 
_cell_angle_beta                  89.60714322134342 
_cell_angle_gamma                 121.45390012492285 
loop_ 
_atom_site_label 
_atom_site_type_symbol 
_atom_site_fract_x 
_atom_site_fract_y 
_atom_site_fract_z 
_atom_site_charge 
N1          N  0.47288311  0.96541826  0.18197928    -0.02600
C2          C  0.46670886  0.96013475  0.14770767     0.00000
C3          C  0.47198007  0.94672574  0.13719021    -0.22900
C4          C  0.48198488  0.94412758  0.16545830    -0.23100
C5          C  0.48261983  0.95602736  0.19254745    -0.00100
H6          H  0.47021517  0.94057511  0.11085627     0.13700
H7          H  0.48845684  0.93489514  0.16552017     0.13700
N8          N  0.49688635  0.00332042  0.86031074    -0.02600
C9          C  0.49731096  0.00706445  0.89608026     0.00000
C10         C  0.51638182  0.01380449  0.90907131    -0.22900
C11         C  0.52801645  0.01412141  0.88076033    -0.23100
C12         C  0.51580231  0.00748193  0.85107408    -0.00100
H13         H  0.52112841  0.01705221  0.93672865     0.13700
H14         H  0.54373335  0.01858871  0.88199466     0.13700
N15         N  0.51063477  0.51834650  0.18924035    -0.02600
C16         C  0.50978902  0.52166421  0.15308096     0.00000
C17         C  0.52160384  0.54188428  0.14432012    -0.22900
C18         C  0.53015063  0.55103250  0.17579788    -0.23100
C19         C  0.52331362  0.53620034  0.20311467    -0.00100
H20         H  0.52397944  0.54944737  0.11802640     0.13700
H21         H  0.54025902  0.56682738  0.17788674     0.13700
N22         N  0.46110775  0.44636399  0.87625195    -0.02600
C23         C  0.46156112  0.44327067  0.91261525     0.00000
C24         C  0.45057559  0.42303853  0.92147916    -0.22900
C25         C  0.44290129  0.41361230  0.88980466    -0.23100
C26         C  0.44943392  0.42830860  0.86227926    -0.00100
H27         H  0.44811973  0.41568414  0.94801374     0.13700
H28         H  0.43334271  0.39774230  0.88777920     0.13700
N29         N  0.02165199  0.47746112  0.89134235    -0.02600
C30         C  0.02219681  0.47353318  0.92740458     0.00000
C31         C  0.02931702  0.46075368  0.93205915    -0.22900
C32         C  0.03304641  0.45667100  0.89803871    -0.23100
C33         C  0.02813003  0.46702928  0.87337124    -0.00100
H34         H  0.03106465  0.45437091  0.95717979     0.13700
H35         H  0.03788625  0.44644705  0.89233621     0.13700
N36         N  0.99034703  0.50894358  0.21662956    -0.02600
C37         C  0.98493492  0.50623729  0.18137657     0.00000
C38         C  0.97349416  0.51473372  0.17383584    -0.22900
C39         C  0.97223379  0.52305447  0.20495106    -0.23100
C40         C  0.98301856  0.51961447  0.23080463    -0.00100
H41         H  0.96730559  0.51574800  0.14828650     0.13700
H42         H  0.96443140  0.53095464  0.20779250     0.13700
C43         C  0.98929163  0.79363972  0.58985670     0.81100
N44         N  0.00560052  0.81250945  0.59028880    -0.77200
C45         C  0.00291835  0.82826188  0.59003364     0.87500
N46         N  0.98389433  0.82496579  0.58972549    -0.77100
C47         C  0.96758395  0.80621348  0.58930462     0.83700
N48         N  0.97044291  0.79069879  0.58900611    -0.78900
C49         C  0.83745597  0.81612010  0.57867052     0.81100
N50         N  0.83451849  0.83166715  0.57855289    -0.77200
C51         C  0.81557907  0.82848995  0.57612504     0.83600
N52         N  0.79963408  0.80970277  0.57415447    -0.77100
C53         C  0.80238493  0.79411341  0.57359680     0.83700
N54         N  0.82132645  0.79738818  0.57569818    -0.78900
N55         N  0.59225804  0.59071048  0.51042040    -0.26400
N56         N  0.57558826  0.57609383  0.52674989    -0.34300
C57         C  0.56250612  0.56529392  0.50133716     0.01900
C58         C  0.57133486  0.57352174  0.46742205     0.08000
C59         C  0.59024340  0.58962204  0.47430306    -0.05100
H60         H  0.54756138  0.55250666  0.50712313     0.08600
H61         H  0.60169343  0.60002630  0.45475074     0.09800
Cu62       Cu  0.57141796  0.57186017  0.58287820     0.44200
Cu63       Cu  0.61676677  0.61222184  0.53750279     0.42000
Cu64       Cu  0.61265589  0.60812057  0.63538151     0.43900
N65         N  0.57166008  0.57046182  0.63928182    -0.33800
N66         N  0.58686639  0.58341749  0.65837668    -0.28000
C67         C  0.58270938  0.57775362  0.69382987    -0.04100
C68         C  0.56392608  0.56052131  0.69729770     0.08100
C69         C  0.55736250  0.55631385  0.66211263     0.01900
H70         H  0.59269880  0.58555028  0.71549205     0.09500
H71         H  0.54350591  0.54363372  0.65350595     0.08600
N72         N  0.63651033  0.63186997  0.60606999    -0.35200
N73         N  0.63820837  0.63326299  0.57024778    -0.27400
C74         C  0.65499225  0.65056496  0.55970368    -0.02700
C75         C  0.66425184  0.66055211  0.59047157     0.06000
C76         C  0.65209550  0.64828066  0.61927806     0.04000
H77         H  0.65968964  0.65566954  0.53172174     0.09200
H78         H  0.65426180  0.65120429  0.64779517     0.08000
N79         N  0.01432732  0.60050781  0.67058783    -0.26400
N80         N  0.00706779  0.58409869  0.65268580    -0.34300
C81         C  0.00624522  0.56966842  0.67467567     0.01900
C82         C  0.01348516  0.57735975  0.70808047     0.08000
C83         C  0.01858270  0.59697652  0.70440313    -0.05100
H84         H  0.00155378  0.55493973  0.66638107     0.08600
H85         H  0.02509386  0.60793225  0.72474772     0.09800
Cu86       Cu  0.00060932  0.58266300  0.59802218     0.44200
Cu87       Cu  0.01788932  0.62682173  0.64751308     0.42000
Cu88       Cu  0.00693759  0.62670508  0.55105860     0.43900
N89         N  0.99853702  0.58531380  0.54227284    -0.33800
N90         N  0.00107503  0.60141701  0.52473643    -0.28000
C91         C  0.99971769  0.59851444  0.48884028    -0.04100
C92         C  0.99617813  0.57965153  0.48367537     0.08100
C93         C  0.99549680  0.57179039  0.51815663     0.01900
H94         H  0.00138271  0.60942086  0.46820657     0.09500
H95         H  0.99327667  0.55735195  0.52519755     0.08600
N96         N  0.01315145  0.64984397  0.58440815    -0.35200
N97         N  0.01743052  0.65004621  0.61911263    -0.27400
C98         C  0.02021794  0.66684258  0.63269168    -0.02700
C99         C  0.01745926  0.67771249  0.60546249     0.06000
C100        C  0.01303813  0.66645095  0.57515387     0.04000
H101        H  0.02352720  0.67065531  0.66066927     0.09200
H102        H  0.00972426  0.66986305  0.54838664     0.08000
C103        C  0.17902361  0.98506269  0.54214077     0.81100
N104        N  0.16370662  0.96612403  0.55072212    -0.77200
C105        C  0.14441704  0.96178837  0.55517827     0.83600
N106        N  0.14050130  0.97662077  0.55116298    -0.77100
C107        C  0.15558544  0.99560738  0.54262060     0.83700
N108        N  0.17485488  0.99975434  0.53797262    -0.78900
C109        C  0.17206823  0.16523331  0.50377154     0.81100
N110        N  0.15296800  0.16161293  0.50350503    -0.77200
C111        C  0.13682500  0.14267879  0.50388475     0.83600
N112        N  0.13995207  0.12723630  0.50517186    -0.77100
C113        C  0.15907703  0.13072353  0.50560344     0.83700
N114        N  0.17500417  0.14972889  0.50463962    -0.78900
C115        C  0.99760650  0.18070538  0.53766652     0.81100
N116        N  0.01450846  0.18032196  0.53018570    -0.77200
C117        C  0.01372185  0.16278102  0.52871021     0.83600
N118        N  0.99566027  0.14536137  0.53435726    -0.77100
C119        C  0.97864381  0.14573078  0.54198858     0.83700
N120        N  0.97985161  0.16340699  0.54396575    -0.78900
N121        N  0.01577922  0.39542918  0.43043826    -0.26400
N122        N  0.01880421  0.41053151  0.44950018    -0.34300
C123        C  0.01799559  0.42399518  0.42726410     0.01900
C124        C  0.01423162  0.41704395  0.39253155     0.08000
C125        C  0.01287933  0.39889926  0.39566854    -0.05100
H126        H  0.01962090  0.43760880  0.43612221     0.08600
H127        H  0.00985738  0.38885279  0.37423241     0.09800
Cu128      Cu  0.02287087  0.41224156  0.50531541     0.44200
Cu129      Cu  0.01556144  0.37053063  0.45171515     0.42000
Cu130      Cu  0.02117056  0.36967492  0.54764377     0.43900
N131        N  0.02446067  0.40861171  0.56119645    -0.33800
N132        N  0.02359444  0.39270847  0.57617577    -0.28000
C133        C  0.02463484  0.39407794  0.61228284    -0.04100
C134        C  0.02625420  0.41166655  0.62075765     0.08100
C135        C  0.02612212  0.42062519  0.58768063     0.01900
H136        H  0.02434683  0.38305832  0.63107135     0.09500
H137        H  0.02717838  0.43474022  0.58311242     0.08600
N138        N  0.01888111  0.34781478  0.51564853    -0.35200
N139        N  0.01689576  0.34800500  0.48014105    -0.27400
C140        C  0.01618212  0.33194055  0.46736296    -0.02700
C141        C  0.01766033  0.32110931  0.49631325     0.06000
C142        C  0.01939890  0.33167284  0.52651682     0.04000
H143        H  0.01466900  0.32838499  0.43911089     0.09200
H144        H  0.02117035  0.32813048  0.55432723     0.08000
N145        N  0.38235420  0.98454090  0.44423747    -0.26400
N146        N  0.39817045  0.98453988  0.45724508    -0.34300
C147        C  0.40921545  0.98408668  0.42939871     0.01900
C148        C  0.39983366  0.98370006  0.39730330     0.08000
C149        C  0.38283396  0.98390905  0.40785782    -0.05100
H150        H  0.42281005  0.98365009  0.43247181     0.08600
H151        H  0.37157294  0.98357322  0.39031908     0.09800
Cu152      Cu  0.40348971  0.98440147  0.51253574     0.44200
Cu153      Cu  0.36062194  0.98518528  0.47654909     0.42000
Cu154      Cu  0.36634135  0.98345956  0.57421867     0.43900
N155        N  0.40542814  0.98393380  0.56886926    -0.33800
N156        N  0.39203279  0.98369193  0.59154980    -0.28000
C157        C  0.39791052  0.98359671  0.62586600    -0.04100
C158        C  0.41586505  0.98375324  0.62465627     0.08100
C159        C  0.42007399  0.98393016  0.58809835     0.01900
H160        H  0.38966676  0.98338218  0.64978356     0.09500
H161        H  0.43294976  0.98410522  0.57628351     0.08600
N162        N  0.34222287  0.98370877  0.54991538    -0.35200
N163        N  0.34038145  0.98482277  0.51440699    -0.27400
C164        C  0.32333736  0.98482683  0.50778634    -0.02700
C165        C  0.31390861  0.98353226  0.54072880     0.06000
C166        C  0.32628014  0.98275669  0.56673020     0.04000
H167        H  0.31797454  0.98519576  0.48096653     0.09200
H168        H  0.32380371  0.98149413  0.59585652     0.08000
C169        C  0.81352068  0.98566603  0.55906855     0.81100
N170        N  0.81282248  0.96801972  0.55922276    -0.77200
C171        C  0.83028404  0.96789623  0.55815666     0.83600
N172        N  0.84819077  0.98528575  0.55668126    -0.77100
C173        C  0.84918023  0.00285272  0.55652947     0.83700
N174        N  0.83178660  0.00307289  0.55784889    -0.78900
N175        N  0.60230993  0.98092713  0.59012460    -0.26400
N176        N  0.58837268  0.98015449  0.56872558    -0.34300
C177        C  0.57560634  0.98317759  0.58802878     0.01900
C178        C  0.58160563  0.98597612  0.62346102     0.08000
C179        C  0.59866150  0.98446489  0.62395307    -0.05100
H180        H  0.56275955  0.98322102  0.57702478     0.08600
H181        H  0.60771477  0.98576390  0.64700989     0.09800
Cu182      Cu  0.58683332  0.97502467  0.51419149     0.44200
Cu183      Cu  0.62527367  0.97683937  0.57099738     0.42000
Cu184      Cu  0.62316971  0.96677744  0.47310987     0.43900
N185        N  0.58715524  0.97046423  0.45966422    -0.33800
N186        N  0.60051418  0.96742223  0.44377670    -0.28000
C187        C  0.59640122  0.96485200  0.40824189    -0.04100
C188        C  0.57965202  0.96635727  0.40166321     0.08100
C189        C  0.57425220  0.96992398  0.43505362     0.01900
H190        H  0.60483835  0.96192280  0.38867713     0.09500
H191        H  0.56175476  0.97177962  0.44140996     0.08600
N192        N  0.64438029  0.96744017  0.50875374    -0.35200
N193        N  0.64550195  0.97144254  0.54350139    -0.27400
C194        C  0.66138606  0.97119799  0.55749455    -0.02700
C195        C  0.67063238  0.96673580  0.53034773     0.06000
C196        C  0.65935595  0.96437284  0.50002822     0.04000
H197        H  0.66575309  0.97394417  0.58541665     0.09200
H198        H  0.66203651  0.96092619  0.47327270     0.08000
N199        N  0.37976900  0.37108375  0.55602778    -0.26400
N200        N  0.39577053  0.38650926  0.53967484    -0.34300
C201        C  0.40865667  0.39767360  0.56500617     0.01900
C202        C  0.40042805  0.38881819  0.59892847     0.08000
C203        C  0.38204820  0.37195537  0.59213966    -0.05100
H204        H  0.42304622  0.41119355  0.55915818     0.08600
H205        H  0.37108200  0.36104890  0.61177265     0.09800
Cu206      Cu  0.39912402  0.39129701  0.48354778     0.44200
Cu207      Cu  0.35572679  0.34944077  0.52828152     0.42000
Cu208      Cu  0.35820590  0.35496364  0.42969791     0.43900
N209        N  0.39875768  0.39344563  0.42721435    -0.33800
N210        N  0.38378629  0.38058060  0.40755688    -0.28000
C211        C  0.38812653  0.38684689  0.37231896    -0.04100
C212        C  0.40677180  0.40435053  0.36962259     0.08100
C213        C  0.41302754  0.40808025  0.40504327     0.01900
H214        H  0.37841464  0.37921837  0.35023683     0.09500
H215        H  0.42672637  0.42069567  0.41429403     0.08600
N216        N  0.33504157  0.33045735  0.45948275    -0.35200
N217        N  0.33408435  0.32875503  0.49535911    -0.27400
C218        C  0.31776346  0.31120586  0.50632634    -0.02700
C219        C  0.30796502  0.30125826  0.47590646     0.06000
C220        C  0.31936823  0.31387915  0.44671333     0.04000
H221        H  0.31381282  0.30585516  0.53438307     0.09200
H222        H  0.31664679  0.31106639  0.41824392     0.08000
C223        C  0.72063939  0.97073620  0.55881659     0.19600
C224        C  0.73754048  0.98518557  0.57672008    -0.18500
C225        C  0.75564184  0.98527946  0.57644607    -0.10800
C226        C  0.75718990  0.97069651  0.55857671     0.21800
C227        C  0.74003992  0.95581057  0.54185727    -0.20100
C228        C  0.72202067  0.95586101  0.54175229    -0.11000
C229        C  0.77612844  0.97013628  0.55779421    -0.15100
C230        C  0.79475615  0.98632653  0.56051797    -0.29000
C231        C  0.70179689  0.97145218  0.55892365    -0.03300
C232        C  0.68866144  0.96483729  0.53176648    -0.39800
H233        H  0.73681714  0.99661888  0.59061389     0.13000
H234        H  0.76824560  0.99660749  0.59074181     0.12600
H235        H  0.74064082  0.94417418  0.52848526     0.12000
H236        H  0.70914411  0.94408880  0.52869959     0.12300
H237        H  0.77469218  0.95596548  0.55326310     0.15000
H238        H  0.79652588  0.00078387  0.56285527     0.13800
H239        H  0.69941191  0.97887403  0.58079210     0.11500
H240        H  0.69172614  0.95875838  0.50845588     0.13500
C241        C  0.93377217  0.09121327  0.54847306     0.19600
C242        C  0.92938844  0.07393632  0.53140700    -0.18500
C243        C  0.90982219  0.05721207  0.53316079    -0.10800
C244        C  0.89417027  0.05725324  0.55263449     0.21800
C245        C  0.89856393  0.07447279  0.56990254    -0.20100
C246        C  0.91814996  0.09118910  0.56822962    -0.11000
C247        C  0.87319279  0.03963147  0.55521506    -0.15100
C248        C  0.86945105  0.02105903  0.55389256    -0.29000
C249        C  0.95465032  0.10898125  0.54474972    -0.03300
C250        C  0.95849054  0.12753509  0.54742154    -0.39800
H251        H  0.94105917  0.07351235  0.51599562     0.13000
H252        H  0.90697613  0.04444585  0.51857810     0.12600
H253        H  0.88686002  0.07489178  0.58520583     0.12000
H254        H  0.92095186  0.10392030  0.58285410     0.12300
H255        H  0.86075756  0.04192715  0.55989852     0.15000
H256        H  0.88201695  0.01877345  0.55162843     0.13800
H257        H  0.96693468  0.10682247  0.53759291     0.11500
H258        H  0.94612990  0.12985385  0.55250762     0.13500
C259        C  0.01486297  0.27209125  0.52387322     0.19600
C260        C  0.00398599  0.25742211  0.55149188    -0.18500
C261        C  0.00336928  0.23942950  0.55218200    -0.10800
C262        C  0.01385625  0.23582658  0.52535682     0.21800
C263        C  0.02518114  0.25071051  0.49827679    -0.20100
C264        C  0.02560379  0.26863570  0.49734439    -0.11000
C265        C  0.01373937  0.21697772  0.52546838    -0.15100
C266        C  0.99808040  0.19957765  0.53890745    -0.29000
C267        C  0.01534663  0.29108495  0.52457986    -0.03300
C268        C  0.01765302  0.30244975  0.49460663    -0.39800
H269        H  0.99586694  0.25987326  0.57257101     0.13000
H270        H  0.99501879  0.22857881  0.57416197     0.12600
H271        H  0.03363120  0.24840521  0.47764349     0.12000
H272        H  0.03465973  0.27987323  0.47632193     0.12300
H273        H  0.02644999  0.21725614  0.51233791     0.15000
H274        H  0.98464753  0.19884487  0.54959563     0.13800
H275        H  0.01267452  0.29530175  0.55070100     0.11500
H276        H  0.01884661  0.29769565  0.46801169     0.13500
C277        C  0.05410738  0.14879095  0.51132030     0.19600
C278        C  0.05553552  0.13204049  0.51927829    -0.18500
C279        C  0.07406971  0.13308430  0.51575342    -0.10800
C280        C  0.09164840  0.15096694  0.50379058     0.21800
C281        C  0.09003288  0.16748600  0.49466317    -0.20100
C282        C  0.07155879  0.16642156  0.49803323    -0.11000
C283        C  0.11212155  0.15358279  0.50198738    -0.15100
C284        C  0.11591983  0.13874744  0.50426519    -0.29000
C285        C  0.03434084  0.14740995  0.51743606    -0.03300
C286        C  0.03286620  0.16346276  0.52171020    -0.39800
H287        H  0.04235102  0.11820538  0.52919013     0.13000
H288        H  0.07453928  0.12000427  0.52342540     0.12600
H289        H  0.10321133  0.18140775  0.48502385     0.12000
H290        H  0.07115509  0.17950056  0.49000412     0.12300
H291        H  0.12484761  0.16875541  0.49858566     0.15000
H292        H  0.10363965  0.12338607  0.50640751     0.13800
H293        H  0.02074781  0.13274915  0.51996832     0.11500
H294        H  0.04638124  0.17812455  0.52080485     0.13500
C295        C  0.26008745  0.25051477  0.50192743     0.19600
C296        C  0.24285988  0.24477683  0.52377875    -0.18500
C297        C  0.22594369  0.22552208  0.52315803    -0.10800
C298        C  0.22610860  0.21149361  0.50111217     0.21800
C299        C  0.24362364  0.21704075  0.48030328    -0.20100
C300        C  0.26038572  0.23639172  0.48040356    -0.11000
C301        C  0.20861578  0.19079272  0.50025677    -0.15100
C302        C  0.18931894  0.18593130  0.50481110    -0.29000
C303        C  0.27780848  0.27103699  0.50322769    -0.03300
C304        C  0.29013842  0.28093670  0.47419340    -0.39800
H305        H  0.24242719  0.25529162  0.54111704     0.13000
H306        H  0.21294027  0.22155745  0.54044888     0.12600
H307        H  0.24426320  0.20640214  0.46363325     0.12000
H308        H  0.27368259  0.24016310  0.46416106     0.12300
H309        H  0.21172766  0.17931074  0.49401529     0.15000
H310        H  0.18595751  0.19747139  0.50859520     0.13800
H311        H  0.28020976  0.27848811  0.52844153     0.11500
H312        H  0.28689278  0.27416215  0.44813734     0.13500
C313        C  0.15965704  0.04661826  0.52510874     0.19600
C314        C  0.17490592  0.06532779  0.51070462    -0.18500
C315        C  0.17156820  0.08104623  0.50601722    -0.10800
C316        C  0.15283029  0.07856932  0.51606403     0.21800
C317        C  0.13748957  0.05982015  0.53013886    -0.20100
C318        C  0.14082295  0.04406871  0.53481683    -0.11000
C319        C  0.14860196  0.09497168  0.51200438    -0.15100
C320        C  0.16314085  0.11436145  0.50823670    -0.29000
C321        C  0.16432142  0.03051451  0.52980104    -0.03300
C322        C  0.15050727  0.01126360  0.53837905    -0.39800
H323        H  0.18952421  0.06780278  0.50277376     0.13000
H324        H  0.18369705  0.09495335  0.49402096     0.12600
H325        H  0.12288336  0.05739287  0.53801699     0.12000
H326        H  0.12861559  0.03012691  0.54648953     0.12300
H327        H  0.13293332  0.09094891  0.51358054     0.15000
H328        H  0.17889020  0.11878945  0.50833023     0.13800
H329        H  0.17993459  0.03472911  0.52539712     0.11500
H330        H  0.13473350  0.00642095  0.54212490     0.13500
C331        C  0.26485506  0.98470409  0.52953443     0.19600
C332        C  0.25982744  0.99704212  0.50983068    -0.18500
C333        C  0.24083056  0.99488639  0.51477107    -0.10800
C334        C  0.22629204  0.98008161  0.53926781     0.21800
C335        C  0.23128344  0.96762319  0.55857682    -0.20100
C336        C  0.25030634  0.96992991  0.55396883    -0.11000
C337        C  0.20543322  0.97628172  0.54412274    -0.15100
C338        C  0.20009980  0.98977030  0.53666178    -0.29000
C339        C  0.28486642  0.98681254  0.52262767    -0.03300
C340        C  0.29428242  0.98196226  0.54782478    -0.39800
H341        H  0.27062791  0.00835748  0.49043779     0.13000
H342        H  0.23744225  0.00445214  0.49863488     0.12600
H343        H  0.22032824  0.95591325  0.57722681     0.12000
H344        H  0.25332770  0.95972489  0.56882445     0.12300
H345        H  0.19400016  0.96170882  0.55549783     0.15000
H346        H  0.21141727  0.00475508  0.52708385     0.13800
H347        H  0.29232372  0.99310634  0.49629583     0.11500
H348        H  0.28772627  0.97713722  0.57510802     0.13500
C349        C  0.82256130  0.88064286  0.56648781     0.19600
C350        C  0.83620989  0.89797294  0.54598907    -0.18500
C351        C  0.83345724  0.91407404  0.54320146    -0.10800
C352        C  0.81717738  0.91343812  0.56166774     0.21800
C353        C  0.80323578  0.89593641  0.58153370    -0.20100
C354        C  0.80592258  0.87971944  0.58412860    -0.11000
C355        C  0.81477205  0.93097156  0.56118501    -0.15100
C356        C  0.83089034  0.94955510  0.55799388    -0.29000
C357        C  0.82649714  0.86412407  0.56943015    -0.03300
C358        C  0.81179380  0.84499565  0.57527922    -0.39800
H359        H  0.84902447  0.89902243  0.53185857     0.13000
H360        H  0.84412147  0.92696706  0.52641030     0.12600
H361        H  0.79054831  0.89501102  0.59590356     0.12000
H362        H  0.79526210  0.86675195  0.60075616     0.12300
H363        H  0.79981911  0.92862153  0.56549942     0.15000
H364        H  0.84588457  0.95176963  0.55625817     0.13800
H365        H  0.84189430  0.86774620  0.56458243     0.11500
H366        H  0.79617744  0.84102576  0.57757942     0.13500
C367        C  0.71324112  0.71086756  0.56778088     0.19600
C368        C  0.73017833  0.71697252  0.54483058    -0.18500
C369        C  0.74751941  0.73581689  0.54720161    -0.10800
C370        C  0.74804840  0.74902568  0.57219442     0.21800
C371        C  0.73089073  0.74317139  0.59425531    -0.20100
C372        C  0.71370414  0.72425338  0.59231270    -0.11000
C373        C  0.76586292  0.76930725  0.57485515    -0.15100
C374        C  0.78499313  0.77374823  0.57003348    -0.29000
C375        C  0.69509940  0.69074366  0.56480032    -0.03300
C376        C  0.68241577  0.68050207  0.59320912    -0.39800
H377        H  0.73004968  0.70705956  0.52526624     0.13000
H378        H  0.76031651  0.74015492  0.52904984     0.12600
H379        H  0.73083999  0.75324380  0.61324613     0.12000
H380        H  0.70068704  0.72032298  0.60952842     0.12300
H381        H  0.76310418  0.78076398  0.58302200     0.15000
H382        H  0.78800485  0.76213488  0.56446474     0.13800
H383        H  0.69262766  0.68388764  0.53891133     0.11500
H384        H  0.68561176  0.68665806  0.61981115     0.13500
C385        C  0.09109091  0.91464969  0.57323927     0.19600
C386        C  0.07159712  0.91045540  0.56571415    -0.18500
C387        C  0.05484796  0.89112247  0.57029699    -0.10800
C388        C  0.05708074  0.87536770  0.58318228     0.21800
C389        C  0.07656731  0.87960909  0.59119092    -0.20100
C390        C  0.09337031  0.89898725  0.58646021    -0.11000
C391        C  0.03972639  0.85431712  0.58713212    -0.15100
C392        C  0.02019278  0.84910256  0.58813413    -0.29000
C393        C  0.10837573  0.93553632  0.56701727    -0.03300
C394        C  0.12790609  0.94089973  0.56337330    -0.39800
H395        H  0.06932920  0.92216996  0.55551271     0.13000
H396        H  0.04034344  0.88867842  0.56277586     0.12600
H397        H  0.07881686  0.86785184  0.60117055     0.12000
H398        H  0.10799847  0.90155998  0.59348891     0.12300
H399        H  0.04321265  0.84268621  0.58943475     0.15000
H400        H  0.01635669  0.86045890  0.58746453     0.13800
H401        H  0.10466357  0.94697818  0.56367073     0.11500
H402        H  0.13203922  0.92975732  0.56525432     0.13500
C403        C  0.88283798  0.80837868  0.58416074     0.19600
C404        C  0.88663617  0.79434346  0.57011656    -0.18500
C405        C  0.90577230  0.79672853  0.57209019    -0.10800
C406        C  0.92159011  0.81315743  0.58872085     0.21800
C407        C  0.91772424  0.82707977  0.60311314    -0.20100
C408        C  0.89858355  0.82470068  0.60110767    -0.11000
C409        C  0.94242616  0.81671775  0.59041413    -0.15100
C410        C  0.94675240  0.80234586  0.58791251    -0.29000
C411        C  0.86221483  0.80519699  0.58114150    -0.03300
C412        C  0.85812485  0.81979416  0.58244757    -0.39800
H413        H  0.87480712  0.78160723  0.55697997     0.13000
H414        H  0.90813973  0.78588697  0.55982039     0.12600
H415        H  0.92957087  0.83984439  0.61615390     0.12000
H416        H  0.89619429  0.83556289  0.61323488     0.12300
H417        H  0.95463673  0.83175037  0.59483616     0.15000
H418        H  0.93468306  0.78706022  0.58544746     0.13800
H419        H  0.84998972  0.79024817  0.57620971     0.11500
H420        H  0.87021878  0.83499841  0.58559733     0.13500
C421        C  0.01211339  0.72355567  0.58688628     0.19600
C422        C  0.99975113  0.72684987  0.56379275    -0.18500
C423        C  0.99844440  0.74376349  0.56614270    -0.10800
C424        C  0.00964045  0.75800853  0.59157295     0.21800
C425        C  0.02251391  0.75508334  0.61397592    -0.20100
C426        C  0.02366658  0.73799160  0.61189005    -0.11000
C427        C  0.00844660  0.77617127  0.59443189    -0.15100
C428        C  0.99138718  0.77610737  0.58773931    -0.29000
C429        C  0.01278697  0.70516024  0.58309517    -0.03300
C430        C  0.01827013  0.69676264  0.60948809    -0.39800
H431        H  0.99092633  0.71619269  0.54388806     0.13000
H432        H  0.98888873  0.74578999  0.54753662     0.12600
H433        H  0.03155461  0.76596298  0.63339691     0.12000
H434        H  0.03383751  0.73634330  0.62944958     0.12300
H435        H  0.02154181  0.78956215  0.60359728     0.15000
H436        H  0.97786795  0.76228474  0.58139864     0.13800
H437        H  0.00743671  0.69763614  0.55796204     0.11500
H438        H  0.02265380  0.70344515  0.63553263     0.13500
C439        C  0.99278483  0.56804822  0.38163534     0.19600
C440        C  0.99011524  0.57678544  0.35004342    -0.18500
C441        C  0.98726169  0.56800949  0.31676181    -0.10800
C442        C  0.98718801  0.55031408  0.31389902     0.21800
C443        C  0.99010284  0.54157314  0.34540578    -0.20100
C444        C  0.99295086  0.55038165  0.37886591    -0.11000
C445        C  0.98352719  0.54156536  0.27762529    -0.15100
C446        C  0.98644790  0.52687199  0.26837017    -0.29000
C447        C  0.99549133  0.57806938  0.41643676    -0.03300
C448        C  0.99385022  0.56946182  0.44956016    -0.39800
H449        H  0.99002554  0.59041033  0.35113480     0.13000
H450        H  0.98506889  0.57513053  0.29305268     0.12600
H451        H  0.98997550  0.52786108  0.34463417     0.12000
H452        H  0.99540394  0.54329904  0.40220816     0.12300
H453        H  0.97881584  0.54830012  0.25691463     0.15000
H454        H  0.99221166  0.52060024  0.28787961     0.13800
H455        H  0.99838891  0.59308131  0.41460268     0.11500
H456        H  0.99041233  0.55431177  0.45237766     0.13500
C457        C  0.01023804  0.45411246  0.32592918     0.19600
C458        C  0.01528473  0.47385196  0.32831701    -0.18500
C459        C  0.01087215  0.48338195  0.30048745    -0.10800
C460        C  0.00135877  0.47342769  0.26912519     0.21800
C461        C  0.99651327  0.45375523  0.26644881    -0.20100
C462        C  0.00092036  0.44417909  0.29438985    -0.11000
C463        C  0.99444953  0.48232691  0.24067773    -0.15100
C464        C  0.00140071  0.50187130  0.23663348    -0.29000
C465        C  0.01405707  0.44446653  0.35788791    -0.03300
C466        C  0.01123423  0.42612803  0.35911562    -0.39800
H467        H  0.02227205  0.48185688  0.35232999     0.13000
H468        H  0.01426250  0.49825630  0.30459313     0.12600
H469        H  0.98891325  0.44561265  0.24290248     0.12000
H470        H  0.99646930  0.42891374  0.29129953     0.12300
H471        H  0.98208789  0.47226193  0.22406656     0.15000
H472        H  0.01364090  0.51233057  0.25285653     0.13800
H473        H  0.01934361  0.45301143  0.38195589     0.11500
H474        H  0.00659997  0.41732192  0.33540412     0.13500
C475        C  0.99525999  0.49172362  0.08739730     0.19600
C476        C  0.00965705  0.48611826  0.09049826    -0.18500
C477        C  0.01719103  0.48211627  0.05944361    -0.10800
C478        C  0.01065918  0.48368522  0.02461779     0.21800
C479        C  0.99629442  0.48931648  0.02163461    -0.20100
C480        C  0.98875740  0.49326554  0.05258819    -0.11000
C481        C  0.01836911  0.47818976  0.99276799    -0.15100
C482        C  0.01549853  0.48113041  0.95742385    -0.29000
C483        C  0.98649069  0.49629046  0.11894931    -0.03300
C484        C  0.99274065  0.49841059  0.15354569    -0.39800
H485        H  0.01501516  0.48457572  0.11663703     0.13000
H486        H  0.02811014  0.47762122  0.06270553     0.12600
H487        H  0.99044872  0.49034863  0.99570947     0.12000
H488        H  0.97766062  0.49752476  0.04923422     0.12300
H489        H  0.02685118  0.47116080  0.99924588     0.15000
H490        H  0.00801009  0.48903589  0.95005557     0.13800
H491        H  0.97443730  0.49884097  0.11243519     0.11500
H492        H  0.00455542  0.49570504  0.16122116     0.13500
C493        C  0.03585728  0.45314529  0.77725716     0.19600
C494        C  0.04375236  0.44178899  0.76564399    -0.18500
C495        C  0.04217280  0.43638098  0.72975110    -0.10800
C496        C  0.03249898  0.44210616  0.70436248     0.21800
C497        C  0.02530947  0.45415821  0.71542973    -0.20100
C498        C  0.02686784  0.45958564  0.75154888    -0.11000
C499        C  0.02996134  0.43578871  0.66630260    -0.15100
C500        C  0.02821563  0.41856592  0.65793318    -0.29000
C501        C  0.03739868  0.45760671  0.81637501    -0.03300
C502        C  0.02750072  0.46499060  0.83334549    -0.39800
H503        H  0.05105103  0.43687313  0.78456814     0.13000
H504        H  0.04871873  0.42783124  0.72199865     0.12600
H505        H  0.01814216  0.45908528  0.69623411     0.12000
H506        H  0.02104738  0.46879483  0.75891525     0.12300
H507        H  0.02886828  0.44510956  0.64515169     0.15000
H508        H  0.02803673  0.40868322  0.67941537     0.13800
H509        H  0.04673875  0.45385879  0.83233843     0.11500
H510        H  0.01814013  0.46898080  0.81821906     0.13500
C511        C  0.01216619  0.53767964  0.77502785     0.19600
C512        C  0.99696087  0.51900395  0.78972586    -0.18500
C513        C  0.00146130  0.50844374  0.81550697    -0.10800
C514        C  0.02140526  0.51621448  0.82645767     0.21800
C515        C  0.03655032  0.53490338  0.81187362    -0.20100
C516        C  0.03199059  0.54562432  0.78674233    -0.11000
C517        C  0.02739181  0.50427003  0.84915383    -0.15100
C518        C  0.01542886  0.49019035  0.87468839    -0.29000
C519        C  0.00741311  0.54773088  0.74521707    -0.03300
C520        C  0.01713109  0.56762427  0.73976697    -0.39800
H521        H  0.98162401  0.51242709  0.78075514     0.13000
H522        H  0.98953786  0.49383238  0.82544405     0.12600
H523        H  0.05208650  0.54104054  0.81935196     0.12000
H524        H  0.04417654  0.55970181  0.77527083     0.12300
H525        H  0.04241199  0.50689736  0.84409661     0.15000
H526        H  0.00100757  0.48820064  0.88279401     0.13800
H527        H  0.99538429  0.53840301  0.72735971     0.11500
H528        H  0.02798389  0.57712034  0.75916939     0.13500
C529        C  0.52373797  0.52147387  0.76622025     0.19600
C530        C  0.50272860  0.51236634  0.76966831    -0.18500
C531        C  0.49184320  0.49856987  0.79828902    -0.10800
C532        C  0.50173658  0.49322383  0.82403402     0.21800
C533        C  0.52288919  0.50284754  0.82114790    -0.20100
C534        C  0.53380312  0.51681514  0.79261538    -0.11000
C535        C  0.49069314  0.47673814  0.85234268    -0.15100
C536        C  0.47046076  0.46498742  0.85542495    -0.29000
C537        C  0.53426473  0.53441117  0.73322991    -0.03300
C538        C  0.55392642  0.54874545  0.73140166    -0.39800
H539        H  0.49461746  0.51570563  0.74970777     0.13000
H540        H  0.47569410  0.49194710  0.79917143     0.12600
H541        H  0.53097583  0.49906031  0.84037725     0.12000
H542        H  0.54995523  0.52323081  0.79049537     0.12300
H543        H  0.49958685  0.47282257  0.86935540     0.15000
H544        H  0.46086212  0.46759492  0.83803139     0.13800
H545        H  0.52523301  0.53218244  0.70954240     0.11500
H546        H  0.56291061  0.55223363  0.75543501     0.13500
C547        C  0.41062953  0.39209950  0.70203246     0.19600
C548        C  0.40353122  0.37776416  0.73091905    -0.18500
C549        C  0.41116987  0.38284267  0.76554070    -0.10800
C550        C  0.42597924  0.40246661  0.77250154     0.21800
C551        C  0.43321662  0.41694102  0.74357095    -0.20100
C552        C  0.42557327  0.41181907  0.70874439    -0.11000
C553        C  0.43314288  0.40679637  0.81033707    -0.15100
C554        C  0.44412758  0.42508028  0.82329149    -0.29000
C555        C  0.40155745  0.38574770  0.66591314    -0.03300
C556        C  0.40983582  0.39612933  0.63423833    -0.39800
H557        H  0.39200579  0.36248697  0.72669265     0.13000
H558        H  0.40528825  0.37133989  0.78714146     0.12600
H559        H  0.44479092  0.43219208  0.74740343     0.12000
H560        H  0.43122637  0.42343782  0.68748755     0.12300
H561        H  0.42834756  0.39398014  0.82876152     0.15000
H562        H  0.44890276  0.43805517  0.80540672     0.13800
H563        H  0.38764878  0.37139783  0.66543870     0.11500
H564        H  0.42416956  0.41009183  0.63361703     0.13500
C565        C  0.49332163  0.49562813  0.06153673     0.19600
C566        C  0.50272276  0.50068311  0.02678897    -0.18500
C567        C  0.49416483  0.48792152  0.99833942    -0.10800
C568        C  0.47577982  0.46977920  0.00389759     0.21800
C569        C  0.46629707  0.46477307  0.03860329    -0.20100
C570        C  0.47488633  0.47753878  0.06710328    -0.11000
C571        C  0.46644049  0.45516283  0.97514693    -0.15100
C572        C  0.47128101  0.45908993  0.93924594    -0.29000
C573        C  0.50305093  0.51008397  0.09038297    -0.03300
C574        C  0.49891918  0.50602889  0.12646396    -0.39800
H575        H  0.51692457  0.51455109  0.02166298     0.13000
H576        H  0.50224397  0.49222569  0.97240810     0.12600
H577        H  0.45212284  0.45087846  0.04372194     0.12000
H578        H  0.46690309  0.47325573  0.09314089     0.12300
H579        H  0.45458476  0.44032785  0.98437125     0.15000
H580        H  0.48199903  0.47408770  0.92896810     0.13800
H581        H  0.51491417  0.52487164  0.08099384     0.11500
H582        H  0.48811095  0.49105905  0.13681604     0.13500
C583        C  0.46958035  0.47361758  0.24530956     0.19600
C584        C  0.44837598  0.46245319  0.24593652    -0.18500
C585        C  0.43738772  0.44827459  0.27416920    -0.10800
C586        C  0.44742190  0.44498850  0.30265971     0.21800
C587        C  0.46860164  0.45598220  0.30183522    -0.20100
C588        C  0.47957523  0.47009162  0.27362057    -0.11000
C589        C  0.43655035  0.43151903  0.33508170    -0.15100
C590        C  0.41705607  0.41663358  0.33597716    -0.29000
C591        C  0.48051486  0.48996857  0.21679489    -0.03300
C592        C  0.50055949  0.49968515  0.20997953    -0.39800
H593        H  0.44023988  0.46503673  0.22488635     0.13000
H594        H  0.42109767  0.44053256  0.27418630     0.12600
H595        H  0.47673794  0.45394999  0.32361267     0.12000
H596        H  0.49581003  0.47864015  0.27515834     0.12300
H597        H  0.44521407  0.43391178  0.35933530     0.15000
H598        H  0.40839115  0.41303554  0.31154972     0.13800
H599        H  0.47188864  0.49513145  0.20213603     0.11500
H600        H  0.50987388  0.49527923  0.22414569     0.13500
C601        C  0.54873331  0.56093918  0.29238570     0.19600
C602        C  0.53820676  0.54743948  0.32199088    -0.18500
C603        C  0.54526260  0.55203049  0.35727623    -0.10800
C604        C  0.56292616  0.57027615  0.36370511     0.21800
C605        C  0.57326723  0.58367383  0.33408401    -0.20100
C606        C  0.56622573  0.57912101  0.29900545    -0.11000
C607        C  0.57151942  0.57604897  0.40029666    -0.15100
C608        C  0.56194408  0.56659564  0.43196822    -0.29000
C609        C  0.54203651  0.55713019  0.25429832    -0.03300
C610        C  0.52884434  0.53913091  0.24198022    -0.39800
H611        H  0.52443509  0.53343461  0.31827985     0.13000
H612        H  0.53688987  0.54113072  0.37910871     0.12600
H613        H  0.58689988  0.59781933  0.33806858     0.12000
H614        H  0.57461250  0.58986299  0.27684086     0.12300
H615        H  0.58651487  0.58918249  0.40100787     0.15000
H616        H  0.54675524  0.55374070  0.43247542     0.13800
H617        H  0.54903561  0.56992346  0.23529367     0.11500
H618        H  0.52227252  0.52610289  0.26037366     0.13500
C619        C  0.43753182  0.98513039  0.72013343     0.19600
C620        C  0.43653637  0.99273469  0.75333015    -0.18500
C621        C  0.44871341  0.99372783  0.78206787    -0.10800
C622        C  0.46218661  0.98696762  0.77836953     0.21800
C623        C  0.46268060  0.97879254  0.74553845    -0.20100
C624        C  0.45055014  0.97784192  0.71683788    -0.11000
C625        C  0.47639256  0.98853487  0.80712612    -0.15100
C626        C  0.48053923  0.99940655  0.83665075    -0.29000
C627        C  0.42454676  0.98472373  0.68999566    -0.03300
C628        C  0.42846269  0.98371737  0.65472429    -0.39800
H629        H  0.42644487  0.99817978  0.75692660     0.13000
H630        H  0.44737384  0.99977465  0.80690410     0.12600
H631        H  0.47271618  0.97328677  0.74185523     0.12000
H632        H  0.45134049  0.97119279  0.69234986     0.12300
H633        H  0.48450584  0.98099830  0.80284291     0.15000
H634        H  0.47192445  0.00619493  0.84286688     0.13800
H635        H  0.41175740  0.98609571  0.69706565     0.11500
H636        H  0.44176318  0.98339850  0.64695361     0.13500
C637        C  0.54669238  0.99833444  0.77999724     0.19600
C638        C  0.53905542  0.99732407  0.74520216    -0.18500
C639        C  0.54853587  0.99503816  0.71490092    -0.10800
C640        C  0.56587797  0.99370120  0.71876320     0.21800
C641        C  0.57338066  0.99476645  0.75359067    -0.20100
C642        C  0.56391308  0.99698737  0.78371354    -0.11000
C643        C  0.57658928  0.99091349  0.68791646    -0.15100
C644        C  0.57106356  0.98942329  0.65317559    -0.29000
C645        C  0.53721200  0.00023515  0.81352840    -0.03300
C646        C  0.52306621  0.00525317  0.81514845    -0.39800
H647        H  0.52563675  0.99796298  0.74119972     0.13000
H648        H  0.54200099  0.99421723  0.68884321     0.12600
H649        H  0.58662260  0.99376594  0.75763143     0.12000
H650        H  0.57013557  0.99765889  0.81017684     0.12300
H651        H  0.58957869  0.98978060  0.69433616     0.15000
H652        H  0.55817898  0.99040337  0.64559032     0.13800
H653        H  0.54253848  0.99744985  0.83890361     0.11500
H654        H  0.51713297  0.00801170  0.79065240     0.13500
C655        C  0.45629160  0.97659058  0.05543339     0.19600
C656        C  0.44826849  0.96701710  0.02304149    -0.18500
C657        C  0.45483750  0.97746754  0.98924003    -0.10800
C658        C  0.46962588  0.99785142  0.98713443     0.21800
C659        C  0.47596947  0.00776973  0.01965661    -0.20100
C660        C  0.46948108  0.99732346  0.05339551    -0.11000
C661        C  0.48171337  0.00847803  0.95319008    -0.15100
C662        C  0.47939240  0.00036477  0.92067666    -0.29000
C663        C  0.45371934  0.96409053  0.08890906    -0.03300
C664        C  0.46097103  0.97114684  0.12170399    -0.39800
H665        H  0.43800681  0.95107598  0.02367481     0.13000
H666        H  0.44936249  0.96916450  0.96508947     0.12600
H667        H  0.48728981  0.02347509  0.01901693     0.12000
H668        H  0.47613874  0.00542334  0.07737340     0.12300
H669        H  0.49544922  0.02269601  0.95676503     0.15000
H670        H  0.46552552  0.98689874  0.91444515     0.13800
H671        H  0.44805077  0.94852328  0.08493294     0.11500
H672        H  0.46543859  0.98616329  0.12782222     0.13500
C673        C  0.43030662  0.98448328  0.31286167     0.19600
C674        C  0.45088104  0.99518829  0.30265638    -0.18500
C675        C  0.45754586  0.99270209  0.26906970    -0.10800
C676        C  0.44373873  0.97899813  0.24504579     0.21800
C677        C  0.42305408  0.96895224  0.25465607    -0.20100
C678        C  0.41638212  0.97159464  0.28813589    -0.11000
C679        C  0.45012155  0.97310902  0.21186565    -0.15100
C680        C  0.46912683  0.97760150  0.20479834    -0.29000
C681        C  0.42416663  0.98613078  0.35029998    -0.03300
C682        C  0.40568260  0.98242322  0.35962760    -0.39800
H683        H  0.46192212  0.00532327  0.32105112     0.13000
H684        H  0.47355965  0.00126202  0.26279136     0.12600
H685        H  0.41202072  0.95830711  0.23687254     0.12000
H686        H  0.40042259  0.96281362  0.29515098     0.12300
H687        H  0.43826387  0.96214143  0.19550990     0.15000
H688        H  0.48125085  0.98757651  0.22165869     0.13800
H689        H  0.43554781  0.99106315  0.37079795     0.11500
H690        H  0.39456123  0.97887217  0.33902435     0.13500
C691        C  0.51887805  0.95744131  0.26664604     0.19600
C692        C  0.53132353  0.94946946  0.26983512    -0.18500
C693        C  0.54281514  0.95229834  0.30060347    -0.10800
C694        C  0.54223966  0.96334406  0.32901831     0.21800
C695        C  0.52980120  0.97130316  0.32589030    -0.20100
C696        C  0.51835588  0.96852981  0.29510081    -0.11000
C697        C  0.55353454  0.96621733  0.36301798    -0.15100
C698        C  0.56945829  0.96386518  0.36663908    -0.29000
C699        C  0.50727315  0.95417490  0.23283173    -0.03300
C700        C  0.49291758  0.95872049  0.22770453    -0.39800
H701        H  0.53207304  0.94085857  0.24845389     0.13000
H702        H  0.55176323  0.94547096  0.30217456     0.12600
H703        H  0.52899647  0.97983011  0.34737890     0.12000
H704        H  0.50937747  0.97531262  0.29387933     0.12300
H705        H  0.54854485  0.97083695  0.38608570     0.15000
H706        H  0.57537063  0.96015128  0.34361524     0.13800
H707        H  0.51105785  0.94787786  0.21080331     0.11500
H708        H  0.48884606  0.96501720  0.24918067     0.13500
loop_ 
_geom_bond_atom_site_label_1 
_geom_bond_atom_site_label_2 
_geom_bond_distance 
_geom_bond_site_symmetry_2 
_ccdc_geom_bond_type 
N1            C5   1.358       .  A
N1            C2   1.359       .  A
N1          C680   1.442       .  S
C2            C3   1.388       .  A
C2          C664   1.490       .  S
C3            C4   1.377       .  A
C3            H6   1.082       .  S
C4            C5   1.384       .  A
C4            H7   1.081       .  S
C5          C700   1.493       .  S
N8           C12   1.366       .  A
N8            C9   1.361       .  A
N8          C626   1.449   1_545  S
C9           C10   1.385       .  A
C9          C662   1.489       .  S
C10          C11   1.368       .  A
C10          H13   1.082       .  S
C11          C12   1.385       .  A
C11          H14   1.082       .  S
C12         C646   1.490       .  S
N15          C19   1.356       .  A
N15          C16   1.358       .  A
N15         C592   1.439       .  S
C16          C17   1.388       .  A
C16         C574   1.492       .  S
C17          C18   1.375       .  A
C17          H20   1.081       .  S
C18          C19   1.386       .  A
C18          H21   1.081       .  S
C19         C610   1.492       .  S
N22          C26   1.357       .  A
N22          C23   1.358       .  A
N22         C536   1.439       .  S
C23          C24   1.387       .  A
C23         C572   1.491       .  S
C24          C25   1.376       .  A
C24          H27   1.081       .  S
C25          C26   1.386       .  A
C25          H28   1.081       .  S
C26         C554   1.494       .  S
N29          C33   1.359       .  A
N29          C30   1.360       .  A
N29         C518   1.445       .  S
C30          C31   1.388       .  A
C30         C482   1.494       .  S
C31          C32   1.375       .  A
C31          H34   1.081       .  S
C32          C33   1.384       .  A
C32          H35   1.081       .  S
C33         C502   1.491       .  S
N36          C40   1.358       .  A
N36          C37   1.361       .  A
N36         C464   1.440   1_655  S
C37          C38   1.390       .  A
C37         C484   1.497       .  S
C38          C39   1.374       .  A
C38          H41   1.080       .  S
C39          C40   1.384       .  A
C39          H42   1.081       .  S
C40         C446   1.494       .  S
C43          N44   1.364   1_655  A
C43          N48   1.359       .  A
C43         C428   1.483       .  S
N44          C45   1.366       .  A
C45          N46   1.361   1_455  A
C45         C392   1.484       .  S
N46          C47   1.359       .  A
C47          N48   1.357       .  A
C47         C410   1.484       .  S
C49          N50   1.362       .  A
C49          N54   1.362       .  A
C49         C412   1.485       .  S
N50          C51   1.362       .  A
C51          N52   1.355       .  A
C51         C358   1.479       .  S
N52          C53   1.358       .  A
C53          N54   1.359       .  A
C53         C374   1.478       .  S
N55          C59   1.344       .  A
N55          N56   1.322       .  A
N55         Cu63   2.074       .  S
N56          C57   1.347       .  A
N56         Cu62   2.080       .  S
C57          C58   1.384       .  A
C57          H60   1.082       .  S
C58          C59   1.387       .  A
C58         C608   1.483       .  S
C59          H61   1.081       .  S
Cu62         N65   2.081       .  S
Cu63         N73   2.074       .  S
Cu64         N66   2.076       .  S
Cu64         N72   2.076       .  S
N65          C69   1.345       .  A
N65          N66   1.323       .  A
N66          C67   1.346       .  A
C67          C68   1.383       .  A
C67          H70   1.082       .  S
C68          C69   1.387       .  A
C68         C538   1.480       .  S
C69          H71   1.081       .  S
N72          C76   1.344       .  A
N72          N73   1.322       .  A
N73          C74   1.346       .  A
C74          C75   1.386       .  A
C74          H77   1.082       .  S
C75          C76   1.382       .  A
C75         C376   1.477       .  S
C76          H78   1.082       .  S
N79          C83   1.348       .  A
N79          N80   1.322       .  A
N79         Cu87   2.094       .  S
N80          C81   1.346       .  A
N80         Cu86   2.075       .  S
C81          C82   1.385       .  A
C81          H84   1.082       .  S
C82          C83   1.387       .  A
C82         C520   1.483       .  S
C83          H85   1.082       .  S
Cu86         N89   2.075   1_455  S
Cu87         N97   2.094       .  S
Cu88         N90   2.089       .  S
Cu88         N96   2.089       .  S
N89          C93   1.344       .  A
N89          N90   1.322   1_655  A
N90          C91   1.349   1_455  A
C91          C92   1.390       .  A
C91          H94   1.081   1_655  S
C92          C93   1.382       .  A
C92         C448   1.483       .  S
C93          H95   1.082       .  S
N96         C100   1.348       .  A
N96          N97   1.324       .  A
N97          C98   1.348       .  A
C98          C99   1.386       .  A
C98         H101   1.082       .  S
C99         C100   1.389       .  A
C99         C430   1.488       .  S
C100        H102   1.081       .  S
C103        N104   1.362       .  A
C103        N108   1.363       .  A
C103        C338   1.489       .  S
N104        C105   1.359       .  A
C105        N106   1.360       .  A
C105        C394   1.486       .  S
N106        C107   1.359       .  A
C107        N108   1.364       .  A
C107        C322   1.486   1_565  S
C109        N110   1.358       .  A
C109        N114   1.358       .  A
C109        C302   1.481       .  S
N110        C111   1.361       .  A
C111        N112   1.363       .  A
C111        C284   1.486       .  S
N112        C113   1.363       .  A
C113        N114   1.359       .  A
C113        C320   1.483       .  S
C115        N116   1.357   1_655  A
C115        N120   1.353       .  A
C115        C266   1.476       .  S
N116        C117   1.360       .  A
C117        N118   1.366   1_455  A
C117        C286   1.481       .  S
N118        C119   1.366       .  A
C119        N120   1.356       .  A
C119        C250   1.478       .  S
N121        C125   1.346       .  A
N121        N122   1.324       .  A
N121       Cu129   2.082       .  S
N122        C123   1.346       .  A
N122       Cu128   2.085       .  S
C123        C124   1.387       .  A
C123        H126   1.081       .  S
C124        C125   1.383       .  A
C124        C466   1.482       .  S
C125        H127   1.082       .  S
Cu128       N131   2.084       .  S
Cu129       N139   2.080       .  S
Cu130       N132   2.064       .  S
Cu130       N138   2.064       .  S
N131        C135   1.350       .  A
N131        N132   1.322       .  A
N132        C133   1.341       .  A
C133        C134   1.379       .  A
C133        H136   1.082       .  S
C134        C135   1.389       .  A
C134        C500   1.476       .  S
C135        H137   1.082       .  S
N138        C142   1.343       .  A
N138        N139   1.321       .  A
N139        C140   1.347       .  A
C140        C141   1.385       .  A
C140        H143   1.082       .  S
C141        C142   1.385       .  A
C141        C268   1.479       .  S
C142        H144   1.081       .  S
N145        C149   1.346       .  A
N145        N146   1.323       .  A
N145       Cu153   2.084       .  S
N146        C147   1.348       .  A
N146       Cu152   2.085       .  S
C147        C148   1.388       .  A
C147        H150   1.082       .  S
C148        C149   1.383       .  A
C148        C682   1.483       .  S
C149        H151   1.082       .  S
Cu152       N155   2.085       .  S
Cu153       N163   2.085       .  S
Cu154       N156   2.092       .  S
Cu154       N162   2.093       .  S
N155        C159   1.346       .  A
N155        N156   1.323       .  A
N156        C157   1.350       .  A
C157        C158   1.389       .  A
C157        H160   1.081       .  S
C158        C159   1.384       .  A
C158        C628   1.486       .  S
C159        H161   1.082       .  S
N162        C166   1.347       .  A
N162        N163   1.323       .  A
N163        C164   1.349       .  A
C164        C165   1.387       .  A
C164        H167   1.082       .  S
C165        C166   1.385       .  A
C165        C340   1.485       .  S
C166        H168   1.082       .  S
C169        N170   1.368       .  A
C169        N174   1.366   1_565  A
C169        C230   1.487       .  S
N170        C171   1.363       .  A
C171        N172   1.351       .  A
C171        C356   1.476       .  S
N172        C173   1.350   1_565  A
C173        N174   1.362       .  A
C173        C248   1.478       .  S
N175        C179   1.350       .  A
N175        N176   1.322       .  A
N175       Cu183   2.096       .  S
N176        C177   1.342       .  A
N176       Cu182   2.061       .  S
C177        C178   1.378       .  A
C177        H180   1.082       .  S
C178        C179   1.392       .  A
C178        C644   1.481       .  S
C179        H181   1.081       .  S
Cu182       N185   2.061       .  S
Cu183       N193   2.097       .  S
Cu184       N186   2.095       .  S
Cu184       N192   2.097       .  S
N185        C189   1.343       .  A
N185        N186   1.320       .  A
N186        C187   1.350       .  A
C187        C188   1.390       .  A
C187        H190   1.082       .  S
C188        C189   1.385       .  A
C188        C698   1.486       .  S
C189        H191   1.081       .  S
N192        C196   1.347       .  A
N192        N193   1.326       .  A
N193        C194   1.351       .  A
C194        C195   1.388       .  A
C194        H197   1.082       .  S
C195        C196   1.384       .  A
C195        C232   1.486       .  S
C196        H198   1.082       .  S
N199        C203   1.345       .  A
N199        N200   1.321       .  A
N199       Cu207   2.074       .  S
N200        C201   1.346       .  A
N200       Cu206   2.080       .  S
C201        C202   1.385       .  A
C201        H204   1.082       .  S
C202        C203   1.388       .  A
C202        C556   1.483       .  S
C203        H205   1.081       .  S
Cu206       N209   2.080       .  S
Cu207       N217   2.073       .  S
Cu208       N210   2.089       .  S
Cu208       N216   2.089       .  S
N209        C213   1.345       .  A
N209        N210   1.323       .  A
N210        C211   1.348       .  A
C211        C212   1.385       .  A
C211        H214   1.082       .  S
C212        C213   1.386       .  A
C212        C590   1.484       .  S
C213        H215   1.081       .  S
N216        C220   1.347       .  A
N216        N217   1.323       .  A
N217        C218   1.345       .  A
C218        C219   1.384       .  A
C218        H221   1.082       .  S
C219        C220   1.385       .  A
C219        C304   1.480       .  S
C220        H222   1.082       .  S
C223        C224   1.405       .  A
C223        C228   1.408       .  A
C223        C231   1.495       .  S
C224        C225   1.403       .  A
C224        H233   1.083       .  S
C225        C226   1.409       .  A
C225        H234   1.082       .  S
C226        C227   1.406       .  A
C226        C229   1.496       .  S
C227        C228   1.403       .  A
C227        H235   1.083       .  S
C228        H236   1.082       .  S
C229        H237   1.087       .  S
C229        C230   1.350       .  D
C230        H238   1.085   1_565  S
C231        H239   1.086       .  S
C231        C232   1.349       .  D
C232        H240   1.085       .  S
C241        C242   1.402       .  A
C241        C246   1.411       .  A
C241        C249   1.493       .  S
C242        C243   1.400       .  A
C242        H251   1.083       .  S
C243        C244   1.410       .  A
C243        H252   1.082       .  S
C244        C245   1.402       .  A
C244        C247   1.492       .  S
C245        C246   1.400       .  A
C245        H253   1.083       .  S
C246        H254   1.081       .  S
C247        H255   1.086       .  S
C247        C248   1.343       .  D
C248        H256   1.085       .  S
C249        H257   1.087       .  S
C249        C250   1.344       .  D
C250        H258   1.084       .  S
C259        C260   1.403       .  A
C259        C264   1.407       .  A
C259        C267   1.484       .  S
C260        C261   1.398       .  A
C260        H269   1.083   1_455  S
C261        C262   1.407       .  A
C261        H270   1.082   1_455  S
C262        C263   1.404       .  A
C262        C265   1.486       .  S
C263        C264   1.400       .  A
C263        H271   1.083       .  S
C264        H272   1.082       .  S
C265        H273   1.087       .  S
C265        C266   1.345   1_455  D
C266        H274   1.086       .  S
C267        H275   1.086       .  S
C267        C268   1.346       .  D
C268        H276   1.085       .  S
C277        C278   1.405       .  A
C277        C282   1.409       .  A
C277        C285   1.497       .  S
C278        C279   1.404       .  A
C278        H287   1.083       .  S
C279        C280   1.409       .  A
C279        H288   1.080       .  S
C280        C281   1.404       .  A
C280        C283   1.494       .  S
C281        C282   1.398       .  A
C281        H289   1.084       .  S
C282        H290   1.081       .  S
C283        H291   1.087       .  S
C283        C284   1.351       .  D
C284        H292   1.084       .  S
C285        H293   1.087       .  S
C285        C286   1.348       .  D
C286        H294   1.084       .  S
C295        C296   1.404       .  A
C295        C300   1.406       .  A
C295        C303   1.486       .  S
C296        C297   1.401       .  A
C296        H305   1.083       .  S
C297        C298   1.407       .  A
C297        H306   1.082       .  S
C298        C299   1.404       .  A
C298        C301   1.487       .  S
C299        C300   1.400       .  A
C299        H307   1.083       .  S
C300        H308   1.082       .  S
C301        H309   1.087       .  S
C301        C302   1.347       .  D
C302        H310   1.086       .  S
C303        H311   1.086       .  S
C303        C304   1.347       .  D
C304        H312   1.086       .  S
C313        C314   1.405       .  A
C313        C318   1.411       .  A
C313        C321   1.499       .  S
C314        C315   1.401       .  A
C314        H323   1.083       .  S
C315        C316   1.409       .  A
C315        H324   1.080       .  S
C316        C317   1.405       .  A
C316        C319   1.498       .  S
C317        C318   1.403       .  A
C317        H325   1.083       .  S
C318        H326   1.080       .  S
C319        H327   1.087       .  S
C319        C320   1.349       .  D
C320        H328   1.083       .  S
C321        H329   1.087       .  S
C321        C322   1.349       .  D
C322        H330   1.083       .  S
C331        C332   1.406       .  A
C331        C336   1.407       .  A
C331        C339   1.494       .  S
C332        C333   1.405       .  A
C332        H341   1.083   1_565  S
C333        C334   1.409       .  A
C333        H342   1.082   1_565  S
C334        C335   1.405       .  A
C334        C337   1.495       .  S
C335        C336   1.400       .  A
C335        H343   1.083       .  S
C336        H344   1.082       .  S
C337        H345   1.087       .  S
C337        C338   1.351       .  D
C338        H346   1.085   1_565  S
C339        H347   1.086       .  S
C339        C340   1.349       .  D
C340        H348   1.085       .  S
C349        C350   1.401       .  A
C349        C354   1.410       .  A
C349        C357   1.489       .  S
C350        C351   1.397       .  A
C350        H359   1.083       .  S
C351        C352   1.410       .  A
C351        H360   1.082       .  S
C352        C353   1.403       .  A
C352        C355   1.492       .  S
C353        C354   1.403       .  A
C353        H361   1.083       .  S
C354        H362   1.082       .  S
C355        H363   1.086       .  S
C355        C356   1.344       .  D
C356        H364   1.085       .  S
C357        H365   1.087       .  S
C357        C358   1.344       .  D
C358        H366   1.085       .  S
C367        C368   1.404       .  A
C367        C372   1.407       .  A
C367        C375   1.486       .  S
C368        C369   1.400       .  A
C368        H377   1.083       .  S
C369        C370   1.406       .  A
C369        H378   1.083       .  S
C370        C371   1.402       .  A
C370        C373   1.482       .  S
C371        C372   1.397       .  A
C371        H379   1.083       .  S
C372        H380   1.082       .  S
C373        H381   1.087       .  S
C373        C374   1.346       .  D
C374        H382   1.086       .  S
C375        H383   1.086       .  S
C375        C376   1.346       .  D
C376        H384   1.085       .  S
C385        C386   1.404       .  A
C385        C390   1.409       .  A
C385        C393   1.495       .  S
C386        C387   1.400       .  A
C386        H395   1.084       .  S
C387        C388   1.410       .  A
C387        H396   1.080       .  S
C388        C389   1.406       .  A
C388        C391   1.499       .  S
C389        C390   1.404       .  A
C389        H397   1.083       .  S
C390        H398   1.081       .  S
C391        H399   1.087       .  S
C391        C392   1.349       .  D
C392        H400   1.083       .  S
C393        H401   1.087       .  S
C393        C394   1.350       .  D
C394        H402   1.084       .  S
C403        C404   1.405       .  A
C403        C408   1.408       .  A
C403        C411   1.493       .  S
C404        C405   1.401       .  A
C404        H413   1.083       .  S
C405        C406   1.408       .  A
C405        H414   1.081       .  S
C406        C407   1.405       .  A
C406        C409   1.494       .  S
C407        C408   1.402       .  A
C407        H415   1.083       .  S
C408        H416   1.081       .  S
C409        H417   1.087       .  S
C409        C410   1.349       .  D
C410        H418   1.084       .  S
C411        H419   1.087       .  S
C411        C412   1.350       .  D
C412        H420   1.084       .  S
C421        C422   1.404   1_455  A
C421        C426   1.410       .  A
C421        C429   1.495       .  S
C422        C423   1.399       .  A
C422        H431   1.083       .  S
C423        C424   1.407   1_655  A
C423        H432   1.082       .  S
C424        C425   1.406       .  A
C424        C427   1.495       .  S
C425        C426   1.405       .  A
C425        H433   1.083       .  S
C426        H434   1.081       .  S
C427        H435   1.087       .  S
C427        C428   1.348   1_455  D
C428        H436   1.086       .  S
C429        H437   1.086       .  S
C429        C430   1.349       .  D
C430        H438   1.085       .  S
C439        C440   1.403       .  A
C439        C444   1.412       .  A
C439        C447   1.494       .  S
C440        C441   1.397       .  A
C440        H449   1.083       .  S
C441        C442   1.405       .  A
C441        H450   1.083       .  S
C442        C443   1.408       .  A
C442        C445   1.492       .  S
C443        C444   1.404       .  A
C443        H451   1.081       .  S
C444        H452   1.080       .  S
C445        H453   1.085       .  S
C445        C446   1.351       .  D
C446        H454   1.083       .  S
C447        H455   1.086       .  S
C447        C448   1.347       .  D
C448        H456   1.083       .  S
C457        C458   1.404       .  A
C457        C462   1.410       .  A
C457        C465   1.493       .  S
C458        C459   1.397       .  A
C458        H467   1.083       .  S
C459        C460   1.408       .  A
C459        H468   1.080       .  S
C460        C461   1.405   1_455  A
C460        C463   1.493   1_455  S
C461        C462   1.402   1_655  A
C461        H469   1.083       .  S
C462        H470   1.080   1_455  S
C463        H471   1.087       .  S
C463        C464   1.346   1_655  D
C464        H472   1.084       .  S
C465        H473   1.085       .  S
C465        C466   1.347       .  D
C466        H474   1.083       .  S
C475        C476   1.406   1_655  A
C475        C480   1.407       .  A
C475        C483   1.493       .  S
C476        C477   1.403       .  A
C476        H485   1.081       .  S
C477        C478   1.409       .  A
C477        H486   1.083       .  S
C478        C479   1.405   1_455  A
C478        C481   1.494   1_554  S
C479        C480   1.399       .  A
C479        H487   1.080   1_554  S
C480        H488   1.083       .  S
C481        H489   1.084       .  S
C481        C482   1.356       .  D
C482        H490   1.082       .  S
C483        H491   1.083       .  S
C483        C484   1.355       .  D
C484        H492   1.083   1_655  S
C493        C494   1.403       .  A
C493        C498   1.410       .  A
C493        C501   1.491       .  S
C494        C495   1.395       .  A
C494        H503   1.084       .  S
C495        C496   1.407       .  A
C495        H504   1.082       .  S
C496        C497   1.404       .  A
C496        C499   1.489       .  S
C497        C498   1.403       .  A
C497        H505   1.083       .  S
C498        H506   1.080       .  S
C499        H507   1.086       .  S
C499        C500   1.345       .  D
C500        H508   1.085       .  S
C501        H509   1.085       .  S
C501        C502   1.348       .  D
C502        H510   1.082       .  S
C511        C512   1.406   1_455  A
C511        C516   1.406       .  A
C511        C519   1.490       .  S
C512        C513   1.404   1_655  A
C512        H521   1.083       .  S
C513        C514   1.407       .  A
C513        H522   1.083   1_455  S
C514        C515   1.404       .  A
C514        C517   1.487       .  S
C515        C516   1.400       .  A
C515        H523   1.083       .  S
C516        H524   1.082       .  S
C517        H525   1.087       .  S
C517        C518   1.347       .  D
C518        H526   1.085       .  S
C519        H527   1.086   1_455  S
C519        C520   1.348       .  D
C520        H528   1.086       .  S
C529        C530   1.401       .  A
C529        C534   1.407       .  A
C529        C537   1.487       .  S
C530        C531   1.397       .  A
C530        H539   1.084       .  S
C531        C532   1.410       .  A
C531        H540   1.078       .  S
C532        C533   1.407       .  A
C532        C535   1.496       .  S
C533        C534   1.401       .  A
C533        H541   1.083       .  S
C534        H542   1.082       .  S
C535        H543   1.087       .  S
C535        C536   1.347       .  D
C536        H544   1.080       .  S
C537        H545   1.086       .  S
C537        C538   1.345       .  D
C538        H546   1.085       .  S
C547        C548   1.403       .  A
C547        C552   1.410       .  A
C547        C555   1.491       .  S
C548        C549   1.396       .  A
C548        H557   1.083       .  S
C549        C550   1.404       .  A
C549        H558   1.084       .  S
C550        C551   1.410       .  A
C550        C553   1.492       .  S
C551        C552   1.404       .  A
C551        H559   1.080       .  S
C552        H560   1.081       .  S
C553        H561   1.084       .  S
C553        C554   1.349       .  D
C554        H562   1.082       .  S
C555        H563   1.085       .  S
C555        C556   1.347       .  D
C556        H564   1.084       .  S
C565        C566   1.407       .  A
C565        C570   1.405       .  A
C565        C573   1.490       .  S
C566        C567   1.399   1_554  A
C566        H575   1.083       .  S
C567        C568   1.405   1_556  A
C567        H576   1.081       .  S
C568        C569   1.408       .  A
C568        C571   1.491   1_554  S
C569        C570   1.401       .  A
C569        H577   1.083       .  S
C570        H578   1.081       .  S
C571        H579   1.085       .  S
C571        C572   1.353       .  D
C572        H580   1.083       .  S
C573        H581   1.084       .  S
C573        C574   1.353       .  D
C574        H582   1.084       .  S
C583        C584   1.406       .  A
C583        C588   1.409       .  A
C583        C591   1.494       .  S
C584        C585   1.402       .  A
C584        H593   1.083       .  S
C585        C586   1.408       .  A
C585        H594   1.081       .  S
C586        C587   1.404       .  A
C586        C589   1.491       .  S
C587        C588   1.399       .  A
C587        H595   1.084       .  S
C588        H596   1.080       .  S
C589        H597   1.086       .  S
C589        C590   1.348       .  D
C590        H598   1.084       .  S
C591        H599   1.087       .  S
C591        C592   1.346       .  D
C592        H600   1.083       .  S
C601        C602   1.409       .  A
C601        C606   1.403       .  A
C601        C609   1.489       .  S
C602        C603   1.403       .  A
C602        H611   1.081       .  S
C603        C604   1.410       .  A
C603        H612   1.080       .  S
C604        C605   1.403       .  A
C604        C607   1.491       .  S
C605        C606   1.395       .  A
C605        H613   1.084       .  S
C606        H614   1.084       .  S
C607        H615   1.085       .  S
C607        C608   1.347       .  D
C608        H616   1.083       .  S
C609        H617   1.084       .  S
C609        C610   1.349       .  D
C610        H618   1.083       .  S
C619        C620   1.405       .  A
C619        C624   1.408       .  A
C619        C627   1.497       .  S
C620        C621   1.403       .  A
C620        H629   1.083       .  S
C621        C622   1.410       .  A
C621        H630   1.080       .  S
C622        C623   1.406       .  A
C622        C625   1.498       .  S
C623        C624   1.401       .  A
C623        H631   1.084       .  S
C624        H632   1.081       .  S
C625        H633   1.085       .  S
C625        C626   1.350       .  D
C626        H634   1.083   1_565  S
C627        H635   1.086       .  S
C627        C628   1.350       .  D
C628        H636   1.084       .  S
C637        C638   1.406       .  A
C637        C642   1.404       .  A
C637        C645   1.488   1_565  S
C638        C639   1.404       .  A
C638        H647   1.081       .  S
C639        C640   1.414       .  A
C639        H648   1.079       .  S
C640        C641   1.402       .  A
C640        C643   1.495       .  S
C641        C642   1.395       .  A
C641        H649   1.083       .  S
C642        H650   1.084       .  S
C643        H651   1.086       .  S
C643        C644   1.345       .  D
C644        H652   1.082       .  S
C645        H653   1.086   1_545  S
C645        C646   1.351       .  D
C646        H654   1.083       .  S
C655        C656   1.408       .  A
C655        C660   1.407       .  A
C655        C663   1.495       .  S
C656        C657   1.402   1_554  A
C656        H665   1.083       .  S
C657        C658   1.407       .  A
C657        H666   1.080       .  S
C658        C659   1.407   1_566  A
C658        C661   1.494   1_565  S
C659        C660   1.400   1_545  A
C659        H667   1.084       .  S
C660        H668   1.080   1_565  S
C661        H669   1.087       .  S
C661        C662   1.352       .  D
C662        H670   1.083   1_545  S
C663        H671   1.086       .  S
C663        C664   1.352       .  D
C664        H672   1.083       .  S
C673        C674   1.403       .  A
C673        C678   1.407       .  A
C673        C681   1.491       .  S
C674        C675   1.400       .  A
C674        H683   1.083   1_565  S
C675        C676   1.410       .  A
C675        H684   1.079   1_565  S
C676        C677   1.406       .  A
C676        C679   1.497       .  S
C677        C678   1.401       .  A
C677        H685   1.083       .  S
C678        H686   1.082       .  S
C679        H687   1.087       .  S
C679        C680   1.348       .  D
C680        H688   1.081       .  S
C681        H689   1.086       .  S
C681        C682   1.347       .  D
C682        H690   1.085       .  S
C691        C692   1.407       .  A
C691        C696   1.409       .  A
C691        C699   1.495       .  S
C692        C693   1.401       .  A
C692        H701   1.083       .  S
C693        C694   1.407       .  A
C693        H702   1.081       .  S
C694        C695   1.405       .  A
C694        C697   1.492       .  S
C695        C696   1.400       .  A
C695        H703   1.083       .  S
C696        H704   1.080       .  S
C697        H705   1.085       .  S
C697        C698   1.351       .  D
C698        H706   1.084       .  S
C699        H707   1.085       .  S
C699        C700   1.351       .  D
C700        H708   1.081       .  S
