geometry optimzed in LAMMPS
_audit_creation_date              2020-12-01 
_audit_creation_method            'lammps2cif' 
_symmetry_space_group_name_H-M    'P1' 
_symmetry_Int_Tables_number       1 
_symmetry_cell_setting            triclinic 
loop_ 
_symmetry_equiv_pos_as_xyz 
  x,y,z 
_cell_length_a                    105.17922551 
_cell_length_b                    105.38514785217708 
_cell_length_c                    105.4086742095143 
_cell_angle_alpha                 90.3300617801936 
_cell_angle_beta                  90.0836508652969 
_cell_angle_gamma                 90.03443437201265 
loop_ 
_atom_site_label 
_atom_site_type_symbol 
_atom_site_fract_x 
_atom_site_fract_y 
_atom_site_fract_z 
_atom_site_charge 
N1          N  0.71384240  0.28750232  0.56889236    -0.25400
N2          N  0.72119618  0.29679691  0.56478799    -0.33200
C3          C  0.72560731  0.29388033  0.55322678     0.03000
C4          C  0.72081424  0.28224537  0.54974860     0.09000
C5          C  0.71322960  0.27843817  0.55978406    -0.04100
H6          H  0.73143632  0.30009129  0.54751898     0.09700
H7          H  0.70742257  0.26997826  0.56027341     0.10900
Cu8        Cu  0.72498146  0.31347324  0.57430820     0.44200
Cu9        Cu  0.70531080  0.28814083  0.58680030     0.42000
Cu10       Cu  0.71553990  0.31644125  0.60551636     0.43900
N11         N  0.73211889  0.32758156  0.58582448    -0.32800
N12         N  0.72921807  0.32825701  0.59796170    -0.27000
C13         C  0.73838949  0.33478344  0.60408248    -0.03100
C14         C  0.74743191  0.33846273  0.59529174     0.09100
C15         C  0.74301933  0.33383548  0.58381775     0.02900
H16         H  0.73950234  0.33490895  0.61429071     0.10500
H17         H  0.74857959  0.33284161  0.57523309     0.09600
N18         N  0.70374816  0.30219694  0.61200625    -0.34200
N19         N  0.70022176  0.29189034  0.60564618    -0.26400
C20         C  0.69415556  0.28403877  0.61370287    -0.01600
C21         C  0.69384936  0.28979460  0.62553098     0.07000
C22         C  0.69999190  0.30120649  0.62411088     0.05100
H23         H  0.69097164  0.27455453  0.61132145     0.10200
H24         H  0.70243299  0.30789856  0.63155158     0.09000
N25         N  0.78161621  0.26492890  0.56970848    -0.25400
N26         N  0.78127927  0.27645663  0.56474632    -0.33200
C27         C  0.77652462  0.27584972  0.55288836     0.03000
C28         C  0.77364633  0.26339283  0.55007717     0.09000
C29         C  0.77703366  0.25666993  0.56091503    -0.04100
H30         H  0.77524276  0.28395096  0.54675828     0.09700
H31         H  0.77626900  0.24652977  0.56226765     0.10900
Cu32       Cu  0.78648128  0.29303542  0.57408647     0.44200
Cu33       Cu  0.78844789  0.26133881  0.58843758     0.42000
Cu34       Cu  0.79524874  0.29088701  0.60586929     0.43900
N35         N  0.78781631  0.30889229  0.58571060    -0.32800
N36         N  0.79063916  0.30801410  0.59786035    -0.27000
C37         C  0.78706908  0.31873684  0.60384347    -0.03100
C38         C  0.78178580  0.32680523  0.59498890     0.09100
C39         C  0.78250656  0.32026089  0.58359503     0.02900
H40         H  0.78646554  0.31971264  0.61405139     0.10500
H41         H  0.77747945  0.32263034  0.57495948     0.09600
N42         N  0.79869831  0.27306482  0.61290813    -0.34200
N43         N  0.79624644  0.26213012  0.60713459    -0.26400
C44         C  0.79961050  0.25266060  0.61514818    -0.01600
C45         C  0.80446901  0.25808780  0.62623689     0.07000
C46         C  0.80361793  0.27094304  0.62443983     0.05100
H47         H  0.79847187  0.24264591  0.61313874     0.10200
H48         H  0.80616555  0.27831548  0.63116893     0.09000
N49         N  0.72958769  0.27744834  0.50319346    -0.01600
C50         C  0.72144919  0.28069097  0.51261431     0.01000
C51         C  0.71307831  0.28990777  0.50862125    -0.21900
C52         C  0.71606852  0.29240763  0.49621323    -0.22100
C53         C  0.72621460  0.28468843  0.49311013     0.00900
H54         H  0.70576008  0.29450044  0.51420682     0.14700
H55         H  0.71130760  0.29910403  0.49007504     0.14700
N56         N  0.75562180  0.24955718  0.50631245    -0.01600
C57         C  0.75713521  0.23996026  0.49778599     0.01000
C58         C  0.76625060  0.23155797  0.50199170    -0.21900
C59         C  0.77047457  0.23608663  0.51354474    -0.22100
C60         C  0.76378656  0.24709527  0.51604129     0.00900
H61         H  0.76937180  0.22296678  0.49726362     0.14700
H62         H  0.77755637  0.23171465  0.51956118     0.14700
N63         N  0.72504924  0.29452665  0.43617616    -0.25400
N64         N  0.71371554  0.29092621  0.44022564    -0.33200
C65         C  0.71448914  0.28757122  0.45244994     0.03000
C66         C  0.72687785  0.28901291  0.45639023     0.09000
C67         C  0.73339814  0.29356620  0.44591211    -0.04100
H68         H  0.70664763  0.28387818  0.45794925     0.09700
H69         H  0.74343667  0.29571907  0.44531685     0.10900
Cu70       Cu  0.69802776  0.28803343  0.42883283     0.44200
Cu71       Cu  0.72804708  0.29947098  0.41714886     0.42000
Cu72       Cu  0.70328014  0.28592205  0.39603396     0.43900
N73         N  0.68629223  0.27764978  0.41706283    -0.32800
N74         N  0.68873866  0.27598502  0.40489350    -0.27000
C75         C  0.68208917  0.26588059  0.40065591    -0.03100
C76         C  0.67506497  0.26107813  0.41065995     0.09100
C77         C  0.67800416  0.26877700  0.42087909     0.02900
H78         H  0.68355003  0.26139325  0.39151401     0.10500
H79         H  0.67591679  0.26682325  0.43072899     0.09600
N80         N  0.71775997  0.29799608  0.39016776    -0.34200
N81         N  0.72665051  0.30299197  0.39760335    -0.26400
C82         C  0.73416305  0.31055779  0.39052238    -0.01600
C83         C  0.72969269  0.31031439  0.37816655     0.07000
C84         C  0.71938566  0.30223422  0.37827234     0.05100
H85         H  0.74229121  0.31577025  0.39409354     0.10200
H86         H  0.71349992  0.29956344  0.37026108     0.09000
N87         N  0.73630190  0.22315876  0.44481995    -0.25400
N88         N  0.72520873  0.22261690  0.45074845    -0.33200
C89         C  0.72666229  0.22670069  0.46280322     0.03000
C90         C  0.73922950  0.23002413  0.46461539     0.09000
C91         C  0.74510402  0.22760976  0.45307508    -0.04100
H92         H  0.71906237  0.22736845  0.46968231     0.09700
H93         H  0.75502721  0.22906876  0.45082029     0.10900
Cu94       Cu  0.70815113  0.21750823  0.44215108     0.44200
Cu95       Cu  0.73886519  0.21808392  0.42553440     0.42000
Cu96       Cu  0.71006954  0.20644337  0.41055375     0.43900
N97         N  0.69244264  0.21661402  0.43024791    -0.32800
N98         N  0.69318920  0.21234900  0.41847797    -0.27000
C99         C  0.68357882  0.21722545  0.41166721    -0.03100
C100        C  0.67656070  0.22518284  0.41940075     0.09100
C101        C  0.68228466  0.22428153  0.43119731     0.02900
H102        H  0.68346657  0.21728847  0.40139839     0.10500
H103        H  0.68091633  0.23085683  0.43900406     0.09600
N104        N  0.72735177  0.20728546  0.40139733    -0.34200
N105        N  0.73794664  0.21189336  0.40642036    -0.26400
C106        C  0.74698981  0.21199876  0.39728671    -0.01600
C107        C  0.74169576  0.20721706  0.38614540     0.07000
C108        C  0.72928713  0.20440291  0.38912619     0.05100
H109        H  0.75658452  0.21547844  0.39859177     0.10200
H110        H  0.72203790  0.20084072  0.38273682     0.09000
N111        N  0.74934596  0.30630400  0.29726398    -0.34700
N112        N  0.74603300  0.30655855  0.32476344    -0.55300
N113        N  0.74252482  0.33403448  0.32436759    -0.34700
N114        N  0.74518097  0.33373012  0.29668619    -0.55300
C115        C  0.74804432  0.29372576  0.29949575     0.28900
C116        C  0.74760634  0.30804061  0.28466707     0.28900
C117        C  0.74086445  0.33204174  0.33694911     0.28900
C118        C  0.74076235  0.34654189  0.32210788     0.28900
C119        C  0.74917726  0.29423841  0.32316297     0.37500
C120        C  0.74567167  0.30871470  0.33740275     0.37500
C121        C  0.74719294  0.33177080  0.28416542     0.37500
C122        C  0.74396674  0.34639731  0.29839163     0.37500
C123        C  0.74571767  0.28739808  0.28815133    -0.20000
C124        C  0.74553227  0.29639916  0.27880178    -0.20000
C125        C  0.73814546  0.34352001  0.34283759    -0.20000
C126        C  0.73812855  0.35265635  0.33351010    -0.20000
C127        C  0.75105022  0.28856612  0.33485205    -0.21000
C128        C  0.74872016  0.29768264  0.34385785    -0.21000
C129        C  0.74720969  0.34324956  0.27782530    -0.21000
C130        C  0.74513830  0.35249563  0.28680134    -0.21000
C131        C  0.74912405  0.28769903  0.31142064    -0.16400
C132        C  0.74804261  0.31975809  0.27818690    -0.16400
C133        C  0.74145340  0.35261635  0.31010705    -0.16400
C134        C  0.74201503  0.32024036  0.34330656    -0.16400
H135        H  0.74422200  0.27732910  0.28672541     0.16500
H136        H  0.74388879  0.29455623  0.26882169     0.16500
H137        H  0.73651124  0.34518216  0.35284526     0.16500
H138        H  0.73639450  0.36267857  0.33498626     0.16500
H139        H  0.75355526  0.27879554  0.33673178     0.14800
H140        H  0.74918250  0.29630432  0.35401398     0.14800
H141        H  0.74833670  0.34479574  0.26774554     0.14800
H142        H  0.74448804  0.36256603  0.28495530     0.14800
H143        H  0.75244723  0.31310330  0.30372151     0.28100
H144        H  0.74477537  0.32724965  0.31767916     0.28100
N145        N  0.73695247  0.20878239  0.21020286    -0.34700
N146        N  0.73238440  0.20804862  0.18301036    -0.55300
N147        N  0.73084060  0.18042654  0.18373211    -0.34700
N148        N  0.73425851  0.18135796  0.21127378    -0.55300
C149        C  0.73527227  0.22126841  0.20781499     0.28900
C150        C  0.73569550  0.20718148  0.22286953     0.28900
C151        C  0.72602460  0.18265932  0.17199596     0.28900
C152        C  0.72791588  0.16831031  0.18687614     0.28900
C153        C  0.73589556  0.22034575  0.18423150     0.37500
C154        C  0.73185806  0.20555868  0.17042437     0.37500
C155        C  0.73794425  0.18366506  0.22338952     0.37500
C156        C  0.73546724  0.16870542  0.20934765     0.37500
C157        C  0.73299224  0.22770840  0.21908826    -0.20000
C158        C  0.73318891  0.21880771  0.22858578    -0.20000
C159        C  0.72006711  0.17174857  0.16757139    -0.20000
C160        C  0.72129891  0.16269258  0.17692925    -0.20000
C161        C  0.73757959  0.22571006  0.17238187    -0.21000
C162        C  0.73497372  0.21636832  0.16363583    -0.21000
C163        C  0.74143454  0.17243316  0.22919902    -0.21000
C164        C  0.73985390  0.16296978  0.22033349    -0.21000
C165        C  0.73652124  0.22709085  0.19583834    -0.16400
C166        C  0.73762518  0.19567705  0.22948198    -0.16400
C167        C  0.73156385  0.16210939  0.19825542    -0.16400
C168        C  0.72748160  0.19405793  0.16498275    -0.16400
H169        H  0.73143399  0.23778782  0.22035490     0.16500
H170        H  0.73181785  0.22072040  0.23859019     0.16500
H171        H  0.71541565  0.17040890  0.15849592     0.16500
H172        H  0.71772856  0.15306668  0.17645822     0.16500
H173        H  0.74011908  0.23542183  0.17025079     0.14800
H174        H  0.73517405  0.21747480  0.15343675     0.14800
H175        H  0.74471033  0.17115940  0.23884568     0.14800
H176        H  0.74157645  0.15297268  0.22187454     0.14800
H177        H  0.74029754  0.20206783  0.20377844     0.28100
H178        H  0.73690429  0.18637349  0.18879461     0.28100
N179        N  0.74811540  0.30083256  0.20569166    -0.34700
N180        N  0.74417168  0.29936215  0.17823387    -0.55300
N181        N  0.74847570  0.32688571  0.17630568    -0.34700
N182        N  0.75087060  0.32848456  0.20394054    -0.55300
C183        C  0.74533595  0.28831364  0.20460989     0.28900
C184        C  0.74815607  0.30378416  0.21821986     0.28900
C185        C  0.74549118  0.32427901  0.16404038     0.28900
C186        C  0.74907336  0.33969593  0.17765750     0.28900
C187        C  0.74340862  0.28682641  0.18086024     0.37500
C188        C  0.74338914  0.30047748  0.16547553     0.37500
C189        C  0.75184011  0.32733637  0.21667621     0.37500
C190        C  0.75251620  0.34091317  0.20128268     0.37500
C191        C  0.74407457  0.28315814  0.21662130    -0.20000
C192        C  0.74584062  0.29288747  0.22518173    -0.20000
C193        C  0.74453309  0.33559700  0.15743320    -0.20000
C194        C  0.74677992  0.34528507  0.16599597    -0.20000
C195        C  0.74195211  0.27994635  0.16970290    -0.21000
C196        C  0.74190218  0.28855538  0.15999766    -0.21000
C197        C  0.75404832  0.33912600  0.22215227    -0.21000
C198        C  0.75453147  0.34768187  0.21245107    -0.21000
C199        C  0.74373599  0.28137974  0.19313707    -0.16400
C200        C  0.75016417  0.31599254  0.22362801    -0.16400
C201        C  0.75150957  0.34649245  0.18910828    -0.16400
C202        C  0.74368580  0.31202058  0.15859619    -0.16400
H203        H  0.74190009  0.27342134  0.21900708     0.16500
H204        H  0.74535990  0.29201003  0.23539393     0.16500
H205        H  0.74234597  0.33678723  0.14747543     0.16500
H206        H  0.74663362  0.35531898  0.16387304     0.16500
H207        H  0.74101048  0.26976675  0.16863542     0.14800
H208        H  0.74090402  0.28625862  0.15002460     0.14800
H209        H  0.75505482  0.34140298  0.23212808     0.14800
H210        H  0.75598414  0.35779154  0.21357834     0.14800
H211        H  0.75045941  0.30671917  0.19849982     0.28100
H212        H  0.75066683  0.32040629  0.18302462     0.28100
N213        N  0.74873574  0.21342573  0.30162308    -0.34700
N214        N  0.75108960  0.21541522  0.32916757    -0.55300
N215        N  0.75292486  0.18806247  0.33089431    -0.34700
N216        N  0.74918806  0.18603708  0.30335990    -0.55300
C217        C  0.74643124  0.22592066  0.30341275     0.28900
C218        C  0.74443629  0.21033704  0.28988880     0.28900
C219        C  0.75055796  0.19104344  0.34321736     0.28900
C220        C  0.75109844  0.17541723  0.32947096     0.28900
C221        C  0.75277199  0.22774053  0.32616952     0.37500
C222        C  0.75351689  0.21441028  0.34172015     0.37500
C223        C  0.74882590  0.18713780  0.29057049     0.37500
C224        C  0.75235235  0.17386469  0.30584011     0.37500
C225        C  0.74071666  0.23088156  0.29265983    -0.20000
C226        C  0.73941076  0.22103579  0.28414426    -0.20000
C227        C  0.74737211  0.18009014  0.34972155    -0.20000
C228        C  0.74779608  0.17023246  0.34108012    -0.20000
C229        C  0.75635746  0.23460131  0.33686495    -0.21000
C230        C  0.75671535  0.22616656  0.34674556    -0.21000
C231        C  0.75159521  0.17557959  0.28490099    -0.21000
C232        C  0.75385609  0.16718189  0.29455788    -0.21000
C233        C  0.74986883  0.23309999  0.31425204    -0.16400
C234        C  0.74559794  0.19832096  0.28393351    -0.16400
C235        C  0.75269823  0.16839715  0.31806850    -0.16400
C236        C  0.75176673  0.20325528  0.34885056    -0.16400
H237        H  0.73780812  0.24059936  0.29109423     0.16500
H238        H  0.73532950  0.22171612  0.27473998     0.16500
H239        H  0.74508413  0.17925298  0.35968960     0.16500
H240        H  0.74579291  0.16037468  0.34310362     0.16500
H241        H  0.75815333  0.24469663  0.33756021     0.14800
H242        H  0.75892075  0.22844352  0.35653068     0.14800
H243        H  0.75192295  0.17340639  0.27485848     0.14800
H244        H  0.75611885  0.15722568  0.29339607     0.14800
H245        H  0.75422641  0.20776821  0.30750704     0.28100
H246        H  0.75676078  0.19400917  0.32407259     0.28100
N247        N  0.70958222  0.94238754  0.26700960    -0.25400
N248        N  0.70708235  0.94853994  0.27772326    -0.33200
C249        C  0.71232405  0.96018833  0.27736091     0.03000
C250        C  0.71850082  0.96154176  0.26593334     0.09000
C251        C  0.71652947  0.95013878  0.25953225    -0.04100
H252        H  0.71175544  0.96712344  0.28494858     0.09700
H253        H  0.71987190  0.94768222  0.25013277     0.10900
Cu254      Cu  0.69783748  0.94080125  0.29318107     0.44200
Cu255      Cu  0.70329170  0.92357197  0.26326433     0.42000
Cu256      Cu  0.68419950  0.91101878  0.28918400     0.43900
N257        N  0.69418263  0.92906582  0.30838685    -0.32800
N258        N  0.68938703  0.91760293  0.30681880    -0.27000
C259        C  0.69271824  0.91035254  0.31674445    -0.03100
C260        C  0.69990517  0.91764734  0.32500695     0.09100
C261        C  0.70049615  0.92948372  0.31945177     0.02900
H262        H  0.69203915  0.90010415  0.31674776     0.10500
H263        H  0.70714052  0.93694028  0.32195442     0.09600
N264        N  0.68660128  0.90184097  0.27214117    -0.34200
N265        N  0.69432987  0.90551006  0.26295689    -0.26400
C266        C  0.69565152  0.89568012  0.25471817    -0.01600
C267        C  0.68828634  0.88560472  0.25901868     0.07000
C268        C  0.68275767  0.88989087  0.27001259     0.05100
H269        H  0.70200094  0.89562353  0.24665223     0.10200
H270        H  0.67722357  0.88434589  0.27662395     0.09000
N271        N  0.77386764  0.93810097  0.29202178    -0.25400
N272        N  0.76791464  0.94201466  0.30239053    -0.33200
C273        C  0.76489401  0.95432505  0.30128949     0.03000
C274        C  0.76907166  0.95856982  0.28971618     0.09000
C275        C  0.77484570  0.94809830  0.28403139    -0.04100
H276        H  0.75998860  0.95981455  0.30847639     0.09700
H277        H  0.77945501  0.94779485  0.27486672     0.10900
Cu278      Cu  0.76280609  0.93083096  0.31754994     0.44200
Cu279      Cu  0.78000257  0.91903866  0.28987127     0.42000
Cu280      Cu  0.76569584  0.89836993  0.31443368     0.43900
N281        N  0.75224121  0.91865532  0.32853993    -0.32800
N282        N  0.75270942  0.90627184  0.32681356    -0.27000
C283        C  0.74200115  0.90104469  0.33141198    -0.03100
C284        C  0.73445439  0.91065620  0.33629771     0.09100
C285        C  0.74132961  0.92165439  0.33439753     0.02900
H286        H  0.73902568  0.89140534  0.32941404     0.10500
H287        H  0.73760182  0.93121463  0.33493869     0.09600
N288        N  0.77888846  0.89246149  0.30117576    -0.34200
N289        N  0.78414416  0.89948669  0.29219626    -0.26400
C290        C  0.79228129  0.89204012  0.28554295    -0.01600
C291        C  0.79207066  0.87995150  0.29074574     0.07000
C292        C  0.78346793  0.88059986  0.30051550     0.05100
H293        H  0.79789306  0.89517403  0.27755790     0.10200
H294        H  0.78065614  0.87295230  0.30672206     0.09000
N295        N  0.73847145  0.00441089  0.25384269    -0.01600
C296        C  0.73751012  0.01293190  0.24421214     0.01000
C297        C  0.73084712  0.00764118  0.23419827    -0.21900
C298        C  0.72755732  0.99553372  0.23771886    -0.22100
C299        C  0.73230167  0.99378561  0.24978115     0.00900
H300        H  0.72806864  0.01232926  0.22551457     0.14700
H301        H  0.72185011  0.98890931  0.23226807     0.14700
N302        N  0.76110338  0.00619175  0.28474678    -0.01600
C303        C  0.76829129  0.99642080  0.28911962     0.01000
C304        C  0.77572369  0.00042785  0.29918676    -0.21900
C305        C  0.77309606  0.01308837  0.30107503    -0.22100
C306        C  0.76414117  0.01638619  0.29210159     0.00900
H307        H  0.78208074  0.99466254  0.30481700     0.14700
H308        H  0.77703650  0.01914065  0.30842420     0.14700
N309        N  0.72915506  0.06912917  0.23135957    -0.25400
N310        N  0.71864907  0.06449673  0.23647960    -0.33200
C311        C  0.72095972  0.05303028  0.24142207     0.03000
C312        C  0.73350260  0.05002107  0.23944931     0.09000
C313        C  0.73850740  0.06037010  0.23290226    -0.04100
H314        H  0.71390266  0.04723095  0.24609718     0.09700
H315        H  0.74813223  0.06138668  0.22944769     0.10900
Cu316      Cu  0.70142530  0.07364305  0.23796502     0.44200
Cu317      Cu  0.72935806  0.08746382  0.22276493     0.42000
Cu318      Cu  0.69882591  0.10443242  0.22830295     0.43900
N319        N  0.68754677  0.08533308  0.24521203    -0.32800
N320        N  0.68700123  0.09741135  0.24212666    -0.27000
C321        C  0.68089173  0.10384668  0.25134742    -0.03100
C322        C  0.67733064  0.09530163  0.26061442     0.09100
C323        C  0.68164495  0.08366903  0.25633947     0.02900
H324        H  0.68093887  0.11408162  0.25223989     0.10500
H325        H  0.68260285  0.07519027  0.26201123     0.09600
N326        N  0.71339144  0.11111459  0.21715612    -0.34200
N327        N  0.72467900  0.10577124  0.21544332    -0.26400
C328        C  0.73203194  0.11412070  0.20899413    -0.01600
C329        C  0.72487391  0.12496701  0.20654529     0.07000
C330        C  0.71321229  0.12265856  0.21187014     0.05100
H331        H  0.74194321  0.11262971  0.20670105     0.10200
H332        H  0.70533471  0.12922884  0.21254858     0.09000
N333        N  0.74559355  0.07141423  0.30343293    -0.25400
N334        N  0.73439425  0.06564806  0.30337544    -0.33200
C335        C  0.73583316  0.05350971  0.29968457     0.03000
C336        C  0.74849961  0.05140707  0.29724852     0.09000
C337        C  0.75450380  0.06289425  0.29978440    -0.04100
H338        H  0.72815926  0.04671460  0.29881932     0.09700
H339        H  0.76456976  0.06488615  0.29908586     0.10900
Cu340      Cu  0.71717033  0.07420344  0.30728635     0.44200
Cu341      Cu  0.74786445  0.09073736  0.30850055     0.42000
Cu342      Cu  0.71746854  0.10533473  0.31768207     0.43900
N343        N  0.70116895  0.08546701  0.30632121    -0.32800
N344        N  0.70138075  0.09747700  0.30986411    -0.27000
C345        C  0.69182372  0.10367536  0.30409073    -0.03100
C346        C  0.68520524  0.09506438  0.29665714     0.09100
C347        C  0.69135689  0.08362225  0.29838515     0.02900
H348        H  0.69111482  0.11390727  0.30363770     0.10500
H349        H  0.69025933  0.07524002  0.29249950     0.09600
N350        N  0.73477046  0.11425479  0.31892653    -0.34200
N351        N  0.74576949  0.10969862  0.31483220    -0.26400
C352        C  0.75430969  0.11931718  0.31484672    -0.01600
C353        C  0.74826184  0.13019575  0.31926582     0.07000
C354        C  0.73598521  0.12660730  0.32171895     0.05100
H355        H  0.76393501  0.11860189  0.31130938     0.10200
H356        H  0.72818291  0.13276172  0.32437090     0.09000
N357        N  0.72962787  0.44578239  0.28384991    -0.25400
N358        N  0.71866881  0.45159547  0.28179008    -0.33200
C359        C  0.72090982  0.46344623  0.27775923     0.03000
C360        C  0.73386210  0.46526408  0.27723638     0.09000
C361        C  0.73918228  0.45393648  0.28122317    -0.04100
H362        H  0.71359935  0.47026123  0.27539706     0.09700
H363        H  0.74919169  0.45181768  0.28225894     0.10900
Cu364      Cu  0.70094350  0.44323173  0.28322667     0.44200
Cu365      Cu  0.73066693  0.42698357  0.29017463     0.42000
Cu366      Cu  0.69986805  0.41070194  0.28952528     0.43900
N367        N  0.68588292  0.43203820  0.27747318    -0.32800
N368        N  0.68586758  0.41964383  0.27912338    -0.27000
C369        C  0.67877144  0.41421370  0.26996198    -0.03100
C370        C  0.67418874  0.42363369  0.26208253     0.09100
C371        C  0.67864108  0.43481406  0.26737917     0.02900
H372        H  0.67919708  0.40420156  0.26765319     0.10500
H373        H  0.67914179  0.44382934  0.26252932     0.09600
N374        N  0.71636416  0.40292026  0.29678501    -0.34200
N375        N  0.72766260  0.40847918  0.29675028    -0.26400
C376        C  0.73634702  0.40016184  0.30115922    -0.01600
C377        C  0.73011358  0.38899378  0.30414009     0.07000
C378        C  0.71753323  0.39105378  0.30120813     0.05100
H379        H  0.74645706  0.40197315  0.30175417     0.10200
H380        H  0.70985042  0.38424159  0.30171360     0.09000
N381        N  0.75180584  0.43884575  0.22140987    -0.25400
N382        N  0.74141230  0.44541092  0.22413581    -0.33200
C383        C  0.74469156  0.45672885  0.22910913     0.03000
C384        C  0.75774853  0.45742378  0.22957527     0.09000
C385        C  0.76202371  0.44597999  0.22458807    -0.04100
H386        H  0.73801582  0.46399562  0.23200180     0.09700
H387        H  0.77180740  0.44314494  0.22317805     0.10900
Cu388      Cu  0.72297238  0.43915033  0.22130346     0.44200
Cu389      Cu  0.75134379  0.42053929  0.21316280     0.42000
Cu390      Cu  0.71884855  0.40813912  0.21003645     0.43900
N391        N  0.70539921  0.43034704  0.22108787    -0.32800
N392        N  0.70391793  0.41848133  0.21733192    -0.27000
C393        C  0.69254286  0.41422672  0.22129844    -0.03100
C394        C  0.68652848  0.42396850  0.22775600     0.09100
C395        C  0.69496159  0.43402921  0.22741752     0.02900
H396        H  0.68966904  0.40436709  0.22102594     0.10500
H397        H  0.69439393  0.44264274  0.23303152     0.09600
N398        N  0.73483055  0.39889071  0.20353358    -0.34200
N399        N  0.74670629  0.40293226  0.20467919    -0.26400
C400        C  0.75448273  0.39391984  0.19979836    -0.01600
C401        C  0.74701166  0.38398163  0.19531269     0.07000
C402        C  0.73470206  0.38743569  0.19793316     0.05100
H403        H  0.76475749  0.39440830  0.19983412     0.10200
H404        H  0.72623033  0.38181885  0.19631452     0.09000
N405        N  0.74603898  0.50965197  0.26324291    -0.01600
C406        C  0.74146334  0.52135573  0.26606132     0.01000
C407        C  0.73445470  0.52101987  0.27711237    -0.21900
C408        C  0.73471391  0.50865529  0.28124730    -0.22100
C409        C  0.74187988  0.50190595  0.27257377     0.00900
H410        H  0.72925370  0.52879241  0.28140171     0.14700
H411        H  0.72971994  0.50488777  0.28937062     0.14700
N412        N  0.77502239  0.50091545  0.24018081    -0.01600
C413        C  0.77900551  0.48916817  0.23672096     0.01000
C414        C  0.79131663  0.48970294  0.23221613    -0.21900
C415        C  0.79499899  0.50226217  0.23288963    -0.22100
C416        C  0.78480060  0.50892039  0.23779046     0.00900
H417        H  0.79681483  0.48192668  0.22832666     0.14700
H418        H  0.80391362  0.50617350  0.22959926     0.14700
N419        N  0.72675277  0.57196385  0.24162406    -0.25400
N420        N  0.73042741  0.56682891  0.23073748    -0.33200
C421        C  0.73615958  0.55565015  0.23297837     0.03000
C422        C  0.73608747  0.55358425  0.24586810     0.09000
C423        C  0.73000395  0.56403714  0.25110171    -0.04100
H424        H  0.73975097  0.54932341  0.22570111     0.09700
H425        H  0.72780581  0.56560257  0.26101212     0.10900
Cu426      Cu  0.72709797  0.57470696  0.21310925     0.44200
Cu427      Cu  0.71713558  0.58942402  0.24283506     0.42000
Cu428      Cu  0.71210440  0.60462145  0.21200558     0.43900
N429        N  0.72516428  0.58488969  0.19650670    -0.32800
N430        N  0.72013491  0.59634222  0.19616170    -0.27000
C431        C  0.72376530  0.60209949  0.18539382    -0.03100
C432        C  0.73137708  0.59380916  0.17858549     0.09100
C433        C  0.73188829  0.58295682  0.18588141     0.02900
H434        H  0.72271761  0.61216538  0.18370917     0.10500
H435        H  0.73861467  0.57526387  0.18472837     0.09600
N436        N  0.70616421  0.61216401  0.22909965    -0.34200
N437        N  0.70803850  0.60701288  0.24037990    -0.26400
C438        C  0.70374454  0.61517692  0.24933112    -0.01600
C439        C  0.69890911  0.62578417  0.24327673     0.07000
C440        C  0.70066740  0.62357036  0.23053408     0.05100
H441        H  0.70452634  0.61371354  0.25945291     0.10200
H442        H  0.69863848  0.63003080  0.22285008     0.09000
N443        N  0.78996242  0.56735247  0.22953329    -0.25400
N444        N  0.78537373  0.56325422  0.21854439    -0.33200
C445        C  0.78251668  0.55085661  0.21944682     0.03000
C446        C  0.78543228  0.54688131  0.23153775     0.09000
C447        C  0.79020250  0.55752246  0.23771438    -0.04100
H448        H  0.77874162  0.54511559  0.21177369     0.09700
H449        H  0.79371163  0.55805369  0.24735575     0.10900
Cu450      Cu  0.78298297  0.57440063  0.20257517     0.44200
Cu451      Cu  0.79562427  0.58626913  0.23257115     0.42000
Cu452      Cu  0.78920947  0.60720097  0.20549595     0.43900
N453        N  0.77832752  0.58723728  0.18851040    -0.32800
N454        N  0.78012753  0.59956348  0.18980792    -0.27000
C455        C  0.77289998  0.60567853  0.18125785    -0.03100
C456        C  0.76625360  0.59676146  0.17418769     0.09100
C457        C  0.77007581  0.58518535  0.17899917     0.02900
H458        H  0.77100867  0.61576822  0.18161103     0.10500
H459        H  0.76538587  0.57617461  0.17736218     0.09600
N460        N  0.79757568  0.61307448  0.22231147    -0.34200
N461        N  0.79992052  0.60575767  0.23222206    -0.26400
C462        C  0.80497651  0.61303205  0.24155490    -0.01600
C463        C  0.80585174  0.62538024  0.23717942     0.07000
C464        C  0.80104400  0.62505079  0.22503236     0.05100
H465        H  0.80754643  0.60964311  0.25088104     0.10200
H466        H  0.79984049  0.63301205  0.21870455     0.09000
N467        N  0.93572938  0.72043514  0.27453848    -0.25400
N468        N  0.94029818  0.72104324  0.28624161    -0.33200
C469        C  0.95217754  0.72577492  0.28597126     0.03000
C470        C  0.95525281  0.72830733  0.27354215     0.09000
C471        C  0.94469433  0.72475498  0.26650240    -0.04100
H472        H  0.95814585  0.72718038  0.29423118     0.09700
H473        H  0.94365397  0.72514618  0.25629894     0.10900
Cu474      Cu  0.93025591  0.71614215  0.30235711     0.44200
Cu475      Cu  0.91743016  0.71376321  0.27013971     0.42000
Cu476      Cu  0.89772504  0.70928335  0.29832297     0.43900
N477        N  0.91770945  0.71557218  0.31741943    -0.32800
N478        N  0.90540860  0.71366463  0.31585751    -0.27000
C479        C  0.89925251  0.71750202  0.32638018    -0.03100
C480        C  0.90814147  0.72195264  0.33501611     0.09100
C481        C  0.91972639  0.72053137  0.32900466     0.02900
H482        H  0.88905237  0.71871982  0.32694603     0.10500
H483        H  0.92863272  0.72478107  0.33195244     0.09600
N484        N  0.89182578  0.70531604  0.28001876    -0.34200
N485        N  0.89869375  0.70691847  0.26963024    -0.26400
C486        C  0.89149047  0.70370560  0.25947104    -0.01600
C487        C  0.87967488  0.69987117  0.26383339     0.07000
C488        C  0.88023028  0.70106171  0.27681718     0.05100
H489        H  0.89452561  0.70438144  0.24969569     0.10200
H490        H  0.87262714  0.69928541  0.28348274     0.09000
N491        N  0.93030575  0.78470397  0.29525217    -0.25400
N492        N  0.93550471  0.78090516  0.30602669    -0.33200
C493        C  0.94763331  0.77754269  0.30399435     0.03000
C494        C  0.95036745  0.77923130  0.29136411     0.09000
C495        C  0.93923392  0.78392263  0.28602708    -0.04100
H496        H  0.95407373  0.77425801  0.31128569     0.09700
H497        H  0.93780328  0.78675291  0.27627986     0.10900
Cu498      Cu  0.92625927  0.77945562  0.32321402     0.44200
Cu499      Cu  0.91120490  0.79080947  0.29431055     0.42000
Cu500      Cu  0.89375580  0.78505144  0.32418322     0.43900
N501        N  0.91502583  0.77212554  0.33740081    -0.32800
N502        N  0.90259277  0.77367519  0.33741351    -0.27000
C503        C  0.89722576  0.76412641  0.34390529    -0.03100
C504        C  0.90674675  0.75610695  0.34809422     0.09100
C505        C  0.91790884  0.76166272  0.34399417     0.02900
H506        H  0.88720969  0.76182035  0.34336560     0.10500
H507        H  0.92703435  0.75695477  0.34335614     0.09600
N508        N  0.88633161  0.79447858  0.30871115    -0.34200
N509        N  0.89223816  0.79641667  0.29779001    -0.26400
C510        C  0.88404927  0.80225578  0.28982931    -0.01600
C511        C  0.87263286  0.80409192  0.29615850     0.07000
C512        C  0.87441591  0.79899729  0.30800992     0.05100
H513        H  0.88616043  0.80473510  0.28011200     0.10200
H514        H  0.86743171  0.79827060  0.31549995     0.09000
N515        N  0.99941750  0.74367597  0.25995585    -0.01600
C516        C  0.99001519  0.73501348  0.25829052     0.01000
C517        C  0.99371417  0.72575033  0.24976404    -0.21900
C518        C  0.00586722  0.72878617  0.24602444    -0.22100
C519        C  0.00915126  0.73977083  0.25243395     0.00900
H520        H  0.98819073  0.71764770  0.24662601     0.14700
H521        H  0.01166072  0.72357138  0.23930840     0.14700
N522        N  0.99806052  0.77441734  0.28294844    -0.01600
C523        C  0.98763514  0.78083502  0.28707541     0.01000
C524        C  0.99116064  0.79061124  0.29511285    -0.21900
C525        C  0.00418819  0.79029002  0.29595401    -0.22100
C526        C  0.00816275  0.78029104  0.28845061     0.00900
H527        H  0.98491031  0.79721894  0.29992649     0.14700
H528        H  0.01013677  0.79673822  0.30135984     0.14700
N529        N  0.06151027  0.75564724  0.23097840    -0.25400
N530        N  0.05581163  0.76681112  0.23008431    -0.33200
C531        C  0.04455485  0.76644180  0.23607170     0.03000
C532        C  0.04294294  0.75451459  0.24101948     0.09000
C533        C  0.05379903  0.74781066  0.23757893    -0.04100
H534        H  0.03790925  0.77426399  0.23655011     0.09700
H535        H  0.05581181  0.73793956  0.23950093     0.10900
Cu536      Cu  0.06313706  0.78250741  0.22108523     0.44200
Cu537      Cu  0.07952301  0.75199216  0.22279720     0.42000
Cu538      Cu  0.09308135  0.78016500  0.20718161     0.43900
N539        N  0.07335554  0.79835364  0.21598365    -0.32800
N540        N  0.08488908  0.79754146  0.21116843    -0.27000
C541        C  0.09085214  0.80873680  0.21279525    -0.03100
C542        C  0.08261523  0.81699620  0.21887463     0.09100
C543        C  0.07159634  0.81008884  0.22065241     0.02900
H544        H  0.10098133  0.81006643  0.21159512     0.10500
H545        H  0.06384826  0.81263398  0.22691761     0.09600
N546        N  0.10161488  0.76250993  0.20740246    -0.34200
N547        N  0.09726972  0.75234642  0.21334790    -0.26400
C548        C  0.10630522  0.74321903  0.21274168    -0.01600
C549        C  0.11662589  0.74794553  0.20604275     0.07000
C550        C  0.11330085  0.76013863  0.20286697     0.05100
H551        H  0.10564307  0.73407066  0.21729867     0.10200
H552        H  0.11925651  0.76709086  0.19824281     0.09000
N553        N  0.06555004  0.78921351  0.29074987    -0.25400
N554        N  0.06049089  0.79907206  0.28488779    -0.33200
C555        C  0.04834426  0.79651748  0.28192076     0.03000
C556        C  0.04549396  0.78450088  0.28608158     0.09000
C557        C  0.05654415  0.78010525  0.29177103    -0.04100
H558        H  0.04197680  0.80306043  0.27723665     0.09700
H559        H  0.05786984  0.77111018  0.29648523     0.10900
Cu560      Cu  0.07007789  0.81545763  0.28017821     0.44200
Cu561      Cu  0.08458488  0.78916695  0.29689551     0.42000
Cu562      Cu  0.10328537  0.81518992  0.28313523     0.43900
N563        N  0.08149979  0.82704523  0.26943063    -0.32800
N564        N  0.09401005  0.82624699  0.26978106    -0.27000
C565        C  0.09870170  0.83043314  0.25869262    -0.03100
C566        C  0.08864214  0.83401405  0.25100750     0.09100
C567        C  0.07792443  0.83191533  0.25825243     0.02900
H568        H  0.10837808  0.82879309  0.25561812     0.10500
H569        H  0.06829158  0.83134212  0.25465832     0.09600
N570        N  0.11033989  0.80230650  0.29622057    -0.34200
N571        N  0.10380316  0.79279293  0.30117297    -0.26400
C572        C  0.11161181  0.78613384  0.30884605    -0.01600
C573        C  0.12350038  0.79181672  0.30871815     0.07000
C574        C  0.12235357  0.80195537  0.30059275     0.05100
H575        H  0.10891639  0.77763516  0.31388677     0.10200
H576        H  0.12981319  0.80841760  0.29775821     0.09000
N577        N  0.79828256  0.70695758  0.25753894    -0.34700
N578        N  0.82535598  0.70745731  0.25492951    -0.55300
N579        N  0.82524957  0.67971685  0.25151471    -0.34700
N580        N  0.79803536  0.67932668  0.25554216    -0.55300
C581        C  0.80141330  0.71853379  0.26224849     0.28900
C582        C  0.78680704  0.70383979  0.26238810     0.28900
C583        C  0.83781895  0.68193789  0.25319739     0.28900
C584        C  0.82330483  0.66708204  0.25276894     0.28900
C585        C  0.82272321  0.71986336  0.25291478     0.37500
C586        C  0.83712363  0.70531564  0.25029869     0.37500
C587        C  0.78540200  0.68163641  0.25496767     0.37500
C588        C  0.79965876  0.66714124  0.25179834     0.37500
C589        C  0.79207055  0.72244122  0.27071414    -0.20000
C590        C  0.78266319  0.71336791  0.27046259    -0.20000
C591        C  0.84398484  0.67052685  0.25546110    -0.20000
C592        C  0.83482885  0.66113044  0.25505889    -0.20000
C593        C  0.83277425  0.72549536  0.24654085    -0.21000
C594        C  0.84204803  0.71636866  0.24524564    -0.21000
C595        C  0.77892949  0.67078703  0.25123164    -0.21000
C596        C  0.78795607  0.66159443  0.24923327    -0.21000
C597        C  0.81177692  0.72602634  0.25789688    -0.16400
C598        C  0.77961632  0.69315746  0.25865748    -0.16400
C599        C  0.81149910  0.66081987  0.25114811    -0.16400
C600        C  0.84386932  0.69385964  0.25176079    -0.16400
H601        H  0.79182748  0.73110835  0.27625781     0.16500
H602        H  0.77382214  0.71378096  0.27566631     0.16500
H603        H  0.85406761  0.66907465  0.25691267     0.16500
H604        H  0.83646335  0.65107135  0.25628008     0.16500
H605        H  0.83347975  0.73514762  0.24319485     0.14800
H606        H  0.85130188  0.71765376  0.24095764     0.14800
H607        H  0.76875987  0.66954142  0.25025724     0.14800
H608        H  0.78608442  0.65191670  0.24628977     0.14800
H609        H  0.80278049  0.70227199  0.25005331     0.28100
H610        H  0.81860109  0.68628221  0.24837362     0.28100
N611        N  0.70026752  0.80122300  0.25960243    -0.34700
N612        N  0.70054032  0.82856536  0.25913589    -0.55300
N613        N  0.67392651  0.82830597  0.25206296    -0.34700
N614        N  0.67357262  0.80053807  0.25348511    -0.55300
C615        C  0.71067861  0.80397103  0.26662334     0.28900
C616        C  0.69660960  0.78931011  0.26257384     0.28900
C617        C  0.67563587  0.84082327  0.25444337     0.28900
C618        C  0.66126322  0.82594565  0.25225066     0.28900
C619        C  0.71315231  0.82631734  0.26029407     0.37500
C620        C  0.69927506  0.84080563  0.25559018     0.37500
C621        C  0.67736835  0.78887110  0.24966353     0.37500
C622        C  0.66279639  0.80313960  0.24705496     0.37500
C623        C  0.71346384  0.79379022  0.27444196    -0.20000
C624        C  0.70435121  0.78468800  0.27214513    -0.20000
C625        C  0.66386225  0.84654379  0.25610798    -0.20000
C626        C  0.65478615  0.83713072  0.25477573    -0.20000
C627        C  0.71995040  0.83726055  0.25766896    -0.21000
C628        C  0.71115782  0.84643580  0.25467469    -0.21000
C629        C  0.66917483  0.78429619  0.24036322    -0.21000
C630        C  0.65968279  0.79316317  0.23904592    -0.21000
C631        C  0.71836659  0.81479752  0.26477902    -0.16400
C632        C  0.68754448  0.78226558  0.25549874    -0.16400
C633        C  0.65559068  0.81425294  0.24876020    -0.16400
C634        C  0.68752048  0.84720217  0.25436222    -0.16400
H635        H  0.72129219  0.79277870  0.28099016     0.16500
H636        H  0.70384375  0.77550067  0.27664881     0.16500
H637        H  0.66199441  0.85648859  0.25791871     0.16500
H638        H  0.64459069  0.83844519  0.25521603     0.16500
H639        H  0.73013233  0.83863036  0.25818683     0.14800
H640        H  0.71326193  0.85620499  0.25235548     0.14800
H641        H  0.66989177  0.77554050  0.23501431     0.14800
H642        H  0.65165213  0.79254686  0.23263780     0.14800
H643        H  0.69705586  0.80636139  0.25180254     0.28100
H644        H  0.68091712  0.82202999  0.24899800     0.28100
N645        N  0.70601181  0.70831316  0.25542807    -0.34700
N646        N  0.70585567  0.68095662  0.25502691    -0.55300
N647        N  0.67810642  0.68062850  0.25689735    -0.34700
N648        N  0.67842711  0.70808283  0.25628273    -0.55300
C649        C  0.71793307  0.70566293  0.25146706     0.28900
C650        C  0.70301261  0.72006639  0.25126189     0.28900
C651        C  0.68033164  0.66853505  0.25316761     0.28900
C652        C  0.66565519  0.68318586  0.25474044     0.28900
C653        C  0.71844579  0.68293054  0.25688407     0.37500
C654        C  0.70383830  0.66838849  0.25655338     0.37500
C655        C  0.68135966  0.72005019  0.25987489     0.37500
C656        C  0.66670747  0.70568640  0.26091911     0.37500
C657        C  0.72262222  0.71578974  0.24458153    -0.20000
C658        C  0.71304540  0.72471578  0.24409492    -0.20000
C659        C  0.66904274  0.66320359  0.24882200    -0.20000
C660        C  0.65977038  0.67247447  0.24980864    -0.20000
C661        C  0.72446755  0.67156236  0.25955456    -0.21000
C662        C  0.71523546  0.66234570  0.25927489    -0.21000
C663        C  0.67165462  0.72503261  0.26730405    -0.21000
C664        C  0.66219852  0.71605601  0.26762566    -0.21000
C665        C  0.72471703  0.69457911  0.25467981    -0.16400
C666        C  0.69191857  0.72681533  0.25500765    -0.16400
C667        C  0.65960717  0.69479630  0.25785580    -0.16400
C668        C  0.69215021  0.66213497  0.25421379    -0.16400
H669        H  0.73187117  0.71664719  0.24020633     0.16500
H670        H  0.71357060  0.73366139  0.23914728     0.16500
H671        H  0.66761468  0.65361382  0.24537450     0.16500
H672        H  0.64984191  0.67141426  0.24730579     0.16500
H673        H  0.73452473  0.66996660  0.26102052     0.14800
H674        H  0.71678874  0.65229484  0.26064820     0.14800
H675        H  0.67123049  0.73431698  0.27171707     0.14800
H676        H  0.65305455  0.71702581  0.27222719     0.14800
H677        H  0.70086021  0.70302027  0.26198062     0.28100
H678        H  0.68447917  0.68645811  0.26174323     0.28100
N679        N  0.79214764  0.79830205  0.27169711    -0.34700
N680        N  0.79074438  0.82508997  0.27810260    -0.55300
N681        N  0.81765796  0.82560837  0.28376025    -0.34700
N682        N  0.81933968  0.79889587  0.27639310    -0.55300
C683        C  0.78082833  0.80180501  0.26669518     0.28900
C684        C  0.79647671  0.78819114  0.26494710     0.28900
C685        C  0.81539102  0.83822371  0.28297213     0.28900
C686        C  0.83039373  0.82386693  0.28357354     0.28900
C687        C  0.77821061  0.82225846  0.27794597     0.37500
C688        C  0.79179257  0.83692052  0.28301932     0.37500
C689        C  0.81664056  0.78634026  0.27639063     0.37500
C690        C  0.82981690  0.80043263  0.28368230     0.37500
C691        C  0.77792729  0.79392192  0.25653153    -0.20000
C692        C  0.78800962  0.78565749  0.25513773    -0.20000
C693        C  0.82690230  0.84463953  0.28244445    -0.20000
C694        C  0.83639568  0.83555717  0.28287925    -0.20000
C695        C  0.77126691  0.83234656  0.28285452    -0.21000
C696        C  0.77986070  0.84162133  0.28603912    -0.21000
C697        C  0.82516586  0.77998873  0.28415289    -0.21000
C698        C  0.83370987  0.78887148  0.28849976    -0.21000
C699        C  0.77298484  0.81157020  0.27166014    -0.16400
C700        C  0.80722250  0.78074089  0.26848322    -0.16400
C701        C  0.83644428  0.81198792  0.28507579    -0.16400
C702        C  0.80322184  0.84395664  0.28364709    -0.16400
H703        H  0.76956812  0.79413340  0.25056813     0.16500
H704        H  0.78885104  0.77851258  0.24778062     0.16500
H705        H  0.82831606  0.85480285  0.28205123     0.16500
H706        H  0.84652712  0.83735776  0.28287127     0.16500
H707        H  0.76105360  0.83328611  0.28351413     0.14800
H708        H  0.77753597  0.85089134  0.28984317     0.14800
H709        H  0.82532398  0.76998756  0.28640097     0.14800
H710        H  0.84179808  0.78705751  0.29458465     0.14800
H711        H  0.79592832  0.80170459  0.28021594     0.28100
H712        H  0.81099683  0.81860150  0.28573387     0.28100
N713        N  0.56683322  0.72896616  0.25069963    -0.25400
N714        N  0.56131593  0.73192989  0.23980732    -0.33200
C715        C  0.54937304  0.73595136  0.24195606     0.03000
C716        C  0.54710513  0.73552403  0.25480072     0.09000
C717        C  0.55833366  0.73102556  0.26011691    -0.04100
H718        H  0.54271977  0.73868043  0.23462290     0.09700
H719        H  0.56005736  0.72905736  0.27003316     0.10900
Cu720      Cu  0.56981880  0.73058828  0.22221340     0.44200
Cu721      Cu  0.58563699  0.72169906  0.25175045     0.42000
Cu722      Cu  0.60256869  0.72423250  0.22136324     0.43900
N723        N  0.58056226  0.73336524  0.20611735    -0.32800
N724        N  0.59299743  0.73175103  0.20596485    -0.27000
C725        C  0.59779040  0.73742342  0.19560207    -0.03100
C726        C  0.58782235  0.74270550  0.18886490     0.09100
C727        C  0.57707136  0.73995881  0.19583333     0.02900
H728        H  0.60783028  0.73891043  0.19394127     0.10500
H729        H  0.56772310  0.74403932  0.19452229     0.09600
N730        N  0.61007616  0.71577252  0.23739907    -0.34200
N731        N  0.60429039  0.71468505  0.24850293    -0.26400
C732        C  0.61225353  0.70854342  0.25651560    -0.01600
C733        C  0.62339636  0.70564029  0.25001314     0.07000
C734        C  0.62164836  0.71042175  0.23801918     0.05100
H735        H  0.61014401  0.70644456  0.26632429     0.10200
H736        H  0.62837960  0.71015073  0.23026797     0.09000
N737        N  0.56144663  0.79029145  0.23201515    -0.25400
N738        N  0.55574699  0.79129088  0.22084848    -0.33200
C739        C  0.54385717  0.78680034  0.22166891     0.03000
C740        C  0.54183715  0.78275031  0.23386777     0.09000
C741        C  0.55312732  0.78509471  0.24029051    -0.04100
H742        H  0.53726225  0.78618008  0.21379690     0.09700
H743        H  0.55519562  0.78304532  0.25012381     0.10900
Cu744      Cu  0.56431716  0.79638017  0.20403783     0.44200
Cu745      Cu  0.58047632  0.79583205  0.23492392     0.42000
Cu746      Cu  0.59613445  0.80365246  0.20494552     0.43900
N747        N  0.57594836  0.79233896  0.18885481    -0.32800
N748        N  0.58824396  0.79468240  0.18942039    -0.27000
C749        C  0.59442894  0.78602593  0.18235240    -0.03100
C750        C  0.58564062  0.77763118  0.17729991     0.09100
C751        C  0.57399461  0.78222405  0.18130472     0.02900
H752        H  0.60449538  0.78415236  0.18337769     0.10500
H753        H  0.56527633  0.77675869  0.18146729     0.09600
N754        N  0.60424141  0.80640618  0.22255961    -0.34200
N755        N  0.59908611  0.80310324  0.23351486    -0.26400
C756        C  0.60780763  0.80497810  0.24277775    -0.01600
C757        C  0.61879091  0.80972234  0.23726306     0.07000
C758        C  0.61619035  0.81043950  0.22450943     0.05100
H759        H  0.60638017  0.80274045  0.25267833     0.10200
H760        H  0.62270269  0.81316338  0.21706627     0.09000
N761        N  0.50124477  0.74245061  0.26927323    -0.01600
C762        C  0.49259545  0.73823113  0.27785713     0.01000
C763        C  0.49850536  0.73045500  0.28657440    -0.21900
C764        C  0.51117416  0.72989487  0.28328567    -0.22100
C765        C  0.51259627  0.73733395  0.27265994     0.00900
H766        H  0.49402898  0.72547144  0.29433031     0.14700
H767        H  0.51848484  0.72440716  0.28796324     0.14700
N768        N  0.49694025  0.76502558  0.23888591    -0.01600
C769        C  0.48667138  0.76628659  0.23123729     0.01000
C770        C  0.48933594  0.77429094  0.22127848    -0.21900
C771        C  0.50174031  0.77814533  0.22286685    -0.22100
C772        C  0.50615150  0.77234235  0.23373327     0.00900
H773        H  0.48302141  0.77689754  0.21360700     0.14700
H774        H  0.50703118  0.78436702  0.21666883     0.14700
N775        N  0.43523501  0.73316994  0.29148974    -0.25400
N776        N  0.43994994  0.72159828  0.28997270    -0.33200
C777        C  0.45188291  0.72231345  0.28551827     0.03000
C778        C  0.45508483  0.73487693  0.28407744     0.09000
C779        C  0.44435356  0.74159607  0.28801873    -0.04100
H780        H  0.45782725  0.71418371  0.28345218     0.09700
H781        H  0.44329842  0.75180099  0.28840311     0.10900
Cu782      Cu  0.43026610  0.70476519  0.29266482     0.44200
Cu783      Cu  0.41634204  0.73629378  0.29831290     0.42000
Cu784      Cu  0.39925910  0.70604819  0.30246564     0.43900
N785        N  0.41788193  0.69003351  0.28891511    -0.32800
N786        N  0.40582073  0.69079891  0.29217054    -0.27000
C787        C  0.39884279  0.68376338  0.28407293    -0.03100
C788        C  0.40690943  0.67836953  0.27520504     0.09100
C789        C  0.41893270  0.68232056  0.27880627     0.02900
H790        H  0.38865590  0.68478893  0.28303303     0.10500
H791        H  0.42725821  0.68212883  0.27277889     0.09600
N792        N  0.39206870  0.72344163  0.30767342    -0.34200
N793        N  0.39751286  0.73461660  0.30577141    -0.26400
C794        C  0.38897738  0.74372022  0.30904798    -0.01600
C795        C  0.37788079  0.73781938  0.31322626     0.07000
C796        C  0.38025139  0.72505887  0.31215754     0.05100
H797        H  0.39057744  0.75381474  0.30813357     0.10200
H798        H  0.37362214  0.71741908  0.31394393     0.09000
N799        N  0.43200364  0.74655925  0.22379366    -0.25400
N800        N  0.43674989  0.73543010  0.22712138    -0.33200
C801        C  0.44888551  0.73693777  0.23083804     0.03000
C802        C  0.45192816  0.74958631  0.22981591     0.09000
C803        C  0.44110021  0.75546096  0.22526375    -0.04100
H804        H  0.45505141  0.72934046  0.23393031     0.09700
H805        H  0.43995532  0.76540725  0.22304558     0.10900
Cu806      Cu  0.42677566  0.71855346  0.22696118     0.44200
Cu807      Cu  0.41335856  0.74900375  0.21743115     0.42000
Cu808      Cu  0.39457297  0.71959233  0.21851909     0.43900
N809        N  0.41465580  0.70345877  0.22991211    -0.32800
N810        N  0.40241176  0.70396648  0.22724758    -0.27000
C811        C  0.39642137  0.69441706  0.23321785    -0.03100
C812        C  0.40542163  0.68749170  0.23979477     0.09100
C813        C  0.41684028  0.69351650  0.23748940     0.02900
H814        H  0.38620016  0.69359524  0.23403942     0.10500
H815        H  0.42570463  0.69194199  0.24246586     0.09600
N816        N  0.38795454  0.73677281  0.21196667    -0.34200
N817        N  0.39437121  0.74758729  0.21179905    -0.26400
C818        C  0.38645571  0.75693206  0.20804396    -0.01600
C819        C  0.37466733  0.75156962  0.20570328     0.07000
C820        C  0.37595004  0.73888362  0.20829701     0.05100
H821        H  0.38898042  0.76686767  0.20749801     0.10200
H822        H  0.36853177  0.73176295  0.20811211     0.09000
N823        N  0.29325295  0.74902653  0.30751458    -0.34700
N824        N  0.29379827  0.74519273  0.33476630    -0.55300
N825        N  0.32200763  0.74610769  0.33393141    -0.34700
N826        N  0.32123101  0.74826839  0.30657271    -0.55300
C827        C  0.28060231  0.74822298  0.30972274     0.28900
C828        C  0.29496496  0.74887868  0.29480491     0.28900
C829        C  0.32006140  0.74276063  0.34616049     0.28900
C830        C  0.33448611  0.74413704  0.33123671     0.28900
C831        C  0.28116846  0.74743693  0.33345014     0.37500
C832        C  0.29631836  0.74549381  0.34735331     0.37500
C833        C  0.31881631  0.75068888  0.29422902     0.37500
C834        C  0.33395171  0.74937628  0.30815921     0.37500
C835        C  0.27417570  0.74763496  0.29823174    -0.20000
C836        C  0.28321638  0.74799929  0.28884022    -0.20000
C837        C  0.33150001  0.73881660  0.35139525    -0.20000
C838        C  0.34056364  0.73962078  0.34198531    -0.20000
C839        C  0.27557653  0.74869847  0.34527960    -0.21000
C840        C  0.28513131  0.74745423  0.35406486    -0.21000
C841        C  0.33008424  0.75325668  0.28791680    -0.21000
C842        C  0.33964947  0.75244604  0.29672510    -0.21000
C843        C  0.27459115  0.74865796  0.32175434    -0.16400
C844        C  0.30670737  0.75021383  0.28835277    -0.16400
C845        C  0.34061461  0.74669374  0.31949877    -0.16400
C846        C  0.30848671  0.74399239  0.35298350    -0.16400
H847        H  0.26400409  0.74709996  0.29674236     0.16500
H848        H  0.28130553  0.74787468  0.27874691     0.16500
H849        H  0.33315128  0.73570327  0.36102538     0.16500
H850        H  0.35052217  0.73724135  0.34298793     0.16500
H851        H  0.26568114  0.75055458  0.34738619     0.14800
H852        H  0.28396727  0.74809501  0.36424818     0.14800
H853        H  0.33131347  0.75543363  0.27797005     0.14800
H854        H  0.34967462  0.75380437  0.29486766     0.14800
H855        H  0.30020522  0.75079964  0.31420687     0.28100
H856        H  0.31549315  0.75083683  0.32830439     0.28100
N857        N  0.19933973  0.74977202  0.21486713    -0.34700
N858        N  0.19992672  0.74297892  0.18823091    -0.55300
N859        N  0.17291384  0.73816137  0.18860975    -0.34700
N860        N  0.17243493  0.74590634  0.21552678    -0.55300
C861        C  0.21055002  0.75466878  0.21101890     0.28900
C862        C  0.19584926  0.75610659  0.22549507     0.28900
C863        C  0.17503473  0.73853398  0.17592688     0.28900
C864        C  0.16032508  0.73999229  0.19055008     0.28900
C865        C  0.21250129  0.74300056  0.19081557     0.37500
C866        C  0.19855725  0.73730237  0.17680140     0.37500
C867        C  0.17517564  0.74574946  0.22808936     0.37500
C868        C  0.16105672  0.74012796  0.21406383     0.37500
C869        C  0.21415776  0.76443792  0.21909900    -0.20000
C870        C  0.20468903  0.76557960  0.22805694    -0.20000
C871        C  0.16357940  0.74033925  0.16967803    -0.20000
C872        C  0.15428714  0.74130308  0.17891445    -0.20000
C873        C  0.21918305  0.73729993  0.18099877    -0.21000
C874        C  0.21034157  0.73370039  0.17209928    -0.21000
C875        C  0.16563922  0.73936879  0.23454666    -0.21000
C876        C  0.15651824  0.73616671  0.22570462    -0.21000
C877        C  0.21800103  0.74947955  0.20118403    -0.16400
C878        C  0.18571387  0.75231186  0.23350630    -0.16400
C879        C  0.15423262  0.73967608  0.20254234    -0.16400
C880        C  0.18700453  0.73672438  0.17001127    -0.16400
H881        H  0.22273436  0.77008380  0.21869177     0.16500
H882        H  0.20458283  0.77233552  0.23582497     0.16500
H883        H  0.16207326  0.74087591  0.15953625     0.16500
H884        H  0.14422606  0.74266132  0.17724181     0.16500
H885        H  0.22937661  0.73628696  0.18007307     0.14800
H886        H  0.21240682  0.72924425  0.16306351     0.14800
H887        H  0.16516637  0.73725053  0.24455737     0.14800
H888        H  0.14761929  0.73137161  0.22758110     0.14800
H889        H  0.19530625  0.74135198  0.21151346     0.28100
H890        H  0.17948421  0.73564269  0.19554210     0.28100
N891        N  0.20267233  0.76355442  0.30702374    -0.34700
N892        N  0.17639273  0.77157282  0.30614841    -0.55300
N893        N  0.17687236  0.77658135  0.33344349    -0.34700
N894        N  0.20288228  0.76740623  0.33444135    -0.55300
C895        C  0.19871788  0.75867606  0.29575612     0.28900
C896        C  0.21309776  0.75697774  0.31064570     0.28900
C897        C  0.16429557  0.77783304  0.33096841     0.28900
C898        C  0.17830474  0.77531463  0.34614555     0.28900
C899        C  0.17967447  0.77205759  0.29375359     0.37500
C900        C  0.16617491  0.77921626  0.30757014     0.37500
C901        C  0.21544916  0.76562225  0.33237227     0.37500
C902        C  0.20178325  0.77205293  0.34637575     0.37500
C903        C  0.20655237  0.74857065  0.29245754    -0.20000
C904        C  0.21583052  0.74775097  0.30167093    -0.20000
C905        C  0.15759394  0.77747722  0.34228133    -0.20000
C906        C  0.16644796  0.77591765  0.35187349    -0.20000
C907        C  0.17173848  0.78039691  0.28738732    -0.21000
C908        C  0.16301060  0.78470284  0.29607744    -0.21000
C909        C  0.22236959  0.76904180  0.34304504    -0.21000
C910        C  0.21372448  0.77308798  0.35192667    -0.21000
C911        C  0.18888825  0.76397753  0.28812310    -0.16400
C912        C  0.22057430  0.75975132  0.32145221    -0.16400
C913        C  0.19012633  0.77456713  0.35260750    -0.16400
C914        C  0.15904771  0.78035668  0.31884918    -0.16400
H915        H  0.20581109  0.74244557  0.28422342     0.16500
H916        H  0.22359907  0.74102687  0.30181679     0.16500
H917        H  0.14743329  0.77851236  0.34351932     0.16500
H918        H  0.16440946  0.77546832  0.36192216     0.16500
H919        H  0.17203693  0.78297342  0.27747205     0.14800
H920        H  0.15524095  0.79114994  0.29416800     0.14800
H921        H  0.23254767  0.76838674  0.34441738     0.14800
H922        H  0.21599895  0.77628466  0.36143598     0.14800
H923        H  0.19942109  0.77189827  0.31126481     0.28100
H924        H  0.18415760  0.77798210  0.32695135     0.28100
N925        N  0.29167508  0.75365598  0.21520573    -0.34700
N926        N  0.31919093  0.75707001  0.21506105    -0.55300
N927        N  0.31920267  0.75586520  0.18743694    -0.34700
N928        N  0.29175074  0.75115345  0.18779257    -0.55300
C929        C  0.29409415  0.75208589  0.22770349     0.28900
C930        C  0.27926719  0.75090894  0.21326699     0.28900
C931        C  0.33187480  0.75611603  0.18972193     0.28900
C932        C  0.31751056  0.75149317  0.17543510     0.28900
C933        C  0.31723284  0.75771644  0.22771482     0.37500
C934        C  0.33144135  0.76035970  0.21309797     0.37500
C935        C  0.27901787  0.75153648  0.18954948     0.37500
C936        C  0.29369878  0.75056387  0.17512929     0.37500
C937        C  0.28300659  0.74849683  0.23382965    -0.20000
C938        C  0.27363333  0.74791285  0.22477114    -0.20000
C939        C  0.33832969  0.75232440  0.17887425    -0.20000
C940        C  0.32928919  0.74936341  0.16990158    -0.20000
C941        C  0.32832451  0.76135592  0.23385173    -0.21000
C942        C  0.33729681  0.76310988  0.22460148    -0.21000
C943        C  0.27284636  0.75100147  0.17792271    -0.21000
C944        C  0.28212906  0.75029381  0.16881026    -0.21000
C945        C  0.30579603  0.75446454  0.23392373    -0.16400
C946        C  0.27281599  0.75137622  0.20147343    -0.16400
C947        C  0.30570728  0.74966379  0.16916825    -0.16400
C948        C  0.33782548  0.75946948  0.20133528    -0.16400
H949        H  0.28170550  0.74672600  0.24384930     0.16500
H950        H  0.26379972  0.74553473  0.22655951     0.16500
H951        H  0.34850922  0.75154265  0.17760082     0.16500
H952        H  0.33120168  0.74596598  0.16038488     0.16500
H953        H  0.32985164  0.76248924  0.24395226     0.14800
H954        H  0.34712247  0.76572874  0.22621026     0.14800
H955        H  0.26270632  0.75080945  0.17617221     0.14800
H956        H  0.28053036  0.74962673  0.15868215     0.14800
H957        H  0.29774388  0.75759428  0.20860262     0.28100
H958        H  0.31221585  0.75940952  0.19339350     0.28100
N959        N  0.29225519  0.76587802  0.44695790    -0.25400
N960        N  0.29145256  0.77751266  0.45173002    -0.33200
C961        C  0.28703070  0.77684684  0.46373007     0.03000
C962        C  0.28495241  0.76422277  0.46662279     0.09000
C963        C  0.28840005  0.75755239  0.45582322    -0.04100
H964        H  0.28528739  0.78496415  0.46981294     0.09700
H965        H  0.28799019  0.74737853  0.45444665     0.10900
Cu966      Cu  0.29561884  0.79388550  0.44142247     0.44200
Cu967      Cu  0.29808561  0.76162973  0.42837151     0.42000
Cu968      Cu  0.30824350  0.78877408  0.41035917     0.43900
N969        N  0.29763619  0.80828186  0.42804221    -0.32800
N970        N  0.30230160  0.80631349  0.41657230    -0.27000
C971        C  0.29908669  0.81605187  0.40902880    -0.03100
C972        C  0.29209915  0.82463535  0.41606942     0.09100
C973        C  0.29145408  0.81943731  0.42809062     0.02900
H974        H  0.29991016  0.81583235  0.39879618     0.10500
H975        H  0.28512728  0.82244694  0.43561737     0.09600
N976        N  0.30849147  0.77053489  0.40332428    -0.34200
N977        N  0.30436266  0.76045994  0.40951277    -0.26400
C978        C  0.30441545  0.75042459  0.40146500    -0.01600
C979        C  0.30887642  0.75453128  0.38980993     0.07000
C980        C  0.31127692  0.76727329  0.39133265     0.05100
H981        H  0.30100853  0.74103029  0.40377516     0.10200
H982        H  0.31418612  0.77387362  0.38406252     0.09000
N983        N  0.22822584  0.78664211  0.44216380    -0.25400
N984        N  0.23449986  0.79715526  0.44507217    -0.33200
C985        C  0.23998988  0.79596080  0.45649230     0.03000
C986        C  0.23704618  0.78420820  0.46125939     0.09000
C987        C  0.22944700  0.77849757  0.45201100    -0.04100
H988        H  0.24534628  0.80338006  0.46122180     0.09700
H989        H  0.22486033  0.76932744  0.45256732     0.10900
Cu990      Cu  0.23560354  0.81316061  0.43400201     0.44200
Cu991      Cu  0.21833559  0.78478695  0.42469540     0.42000
Cu992      Cu  0.22684310  0.81104549  0.40268701     0.43900
N993        N  0.24219841  0.82594062  0.42091416    -0.32800
N994        N  0.24002048  0.82433847  0.40870392    -0.27000
C995        C  0.24943051  0.82992741  0.40211890    -0.03100
C996        C  0.25784989  0.83540622  0.41068597     0.09100
C997        C  0.25278312  0.83284251  0.42246818     0.02900
H998        H  0.25117836  0.82821383  0.39214003     0.10500
H999        H  0.25788509  0.83345406  0.43138093     0.09600
N1000       N  0.21368258  0.79694295  0.39884548    -0.34200
N1001       N  0.21060467  0.78729647  0.40626607    -0.26400
C1002       C  0.20239673  0.77973394  0.39979647    -0.01600
C1003       C  0.20022038  0.78506126  0.38795276     0.07000
C1004       C  0.20754664  0.79585134  0.38772752     0.05100
H1005       H  0.19866824  0.77083749  0.40326499     0.10200
H1006       H  0.20882204  0.80219140  0.37978879     0.09000
N1007       N  0.26651902  0.74860279  0.50884045    -0.01600
C1008       C  0.27370152  0.74543668  0.49861570     0.01000
C1009       C  0.27871602  0.73343645  0.50009246    -0.21900
C1010       C  0.27457068  0.72910957  0.51170890    -0.22100
C1011       C  0.26717754  0.73862092  0.51695449     0.00900
H1012       H  0.28488020  0.72844458  0.49354100     0.14700
H1013       H  0.27686928  0.72006491  0.51594767     0.14700
N1014       N  0.24673705  0.78123996  0.50899073    -0.01600
C1015       C  0.24189264  0.78652563  0.49829187     0.01000
C1016       C  0.23695605  0.79837344  0.50094883    -0.21900
C1017       C  0.23872967  0.80046357  0.51371195    -0.22100
C1018       C  0.24474916  0.78984912  0.51841493     0.00900
H1019       H  0.23239412  0.80474745  0.49433709     0.14700
H1020       H  0.23565829  0.80870974  0.51905379     0.14700
N1021       N  0.24820595  0.72417890  0.57172333    -0.25400
N1022       N  0.23713361  0.72650247  0.56617874    -0.33200
C1023       C  0.23900111  0.73070820  0.55431226     0.03000
C1024       C  0.25184372  0.73115496  0.55200348     0.09000
C1025       C  0.25749022  0.72689247  0.56320524    -0.04100
H1026       H  0.23147324  0.73341377  0.54786434     0.09700
H1027       H  0.26756727  0.72591845  0.56502131     0.10900
Cu1028     Cu  0.21955078  0.72530172  0.57467716     0.44200
Cu1029     Cu  0.24946745  0.71766860  0.59099851     0.42000
Cu1030     Cu  0.21808799  0.71648595  0.60641480     0.43900
N1031       N  0.20367376  0.72883394  0.58554045    -0.32800
N1032       N  0.20320771  0.72581221  0.59765065    -0.27000
C1033       C  0.19394375  0.73259304  0.60327939    -0.03100
C1034       C  0.18830714  0.74023139  0.59424550     0.09100
C1035       C  0.19470088  0.73754839  0.58310567     0.02900
H1036       H  0.19282035  0.73343351  0.61345301     0.10500
H1037       H  0.19436331  0.74308983  0.57449711     0.09600
N1038       N  0.23474434  0.71070443  0.61511046    -0.34200
N1039       N  0.24629470  0.71138660  0.61013129    -0.26400
C1040       C  0.25473028  0.70793517  0.61926668    -0.01600
C1041       C  0.24806597  0.70492126  0.63031189     0.07000
C1042       C  0.23549439  0.70684403  0.62722996     0.05100
H1043       H  0.26494645  0.70795140  0.61809615     0.10200
H1044       H  0.22742993  0.70600727  0.63353424     0.09000
N1045       N  0.23904028  0.79858516  0.57593299    -0.25400
N1046       N  0.22751803  0.79772224  0.57092175    -0.33200
C1047       C  0.22840129  0.79409839  0.55873341     0.03000
C1048       C  0.24103595  0.79255181  0.55577800     0.09000
C1049       C  0.24761953  0.79556355  0.56683366    -0.04100
H1050       H  0.22035677  0.79255389  0.55249857     0.09700
H1051       H  0.25781953  0.79554243  0.56816667     0.10900
Cu1052     Cu  0.21066266  0.79953021  0.58072571     0.44200
Cu1053     Cu  0.24193446  0.80349405  0.59518021     0.42000
Cu1054     Cu  0.21253054  0.80074331  0.61373001     0.43900
N1055       N  0.19630375  0.79259185  0.59197162    -0.32800
N1056       N  0.19734038  0.79231372  0.60443626    -0.27000
C1057       C  0.18991265  0.78296536  0.60891182    -0.03100
C1058       C  0.18397936  0.77702928  0.59875623     0.09100
C1059       C  0.18813246  0.78353310  0.58820297     0.02900
H1060       H  0.19066943  0.77925016  0.61843374     0.10500
H1061       H  0.18743679  0.78019218  0.57849544     0.09600
N1062       N  0.22958781  0.80743769  0.62100601    -0.34200
N1063       N  0.24038370  0.80832410  0.61460147    -0.26400
C1064       C  0.24952799  0.81254016  0.62262719    -0.01600
C1065       C  0.24411860  0.81440000  0.63449918     0.07000
C1066       C  0.23154231  0.81103547  0.63310517     0.05100
H1067       H  0.25938277  0.81395067  0.62006643     0.10200
H1068       H  0.22434990  0.81093228  0.64043440     0.09000
N1069       N  0.26005227  0.71000037  0.94956694    -0.25400
N1070       N  0.27073165  0.70904032  0.95616784    -0.33200
C1071       C  0.26874354  0.71337633  0.96804405     0.03000
C1072       C  0.25625447  0.71727038  0.96894876    -0.06600
C1073       C  0.25098004  0.71495203  0.95713385    -0.04100
H1074       H  0.27586040  0.71361463  0.97546468     0.09700
H1075       H  0.24123822  0.71660599  0.95428044     0.10900
Cu1076     Cu  0.28776420  0.70249667  0.94866600     0.44200
Cu1077     Cu  0.25822409  0.70437206  0.93054912     0.42000
Cu1078     Cu  0.28593878  0.68841751  0.91808169     0.43900
N1079       N  0.30350081  0.70016122  0.93706541    -0.32800
N1080       N  0.30276735  0.69500906  0.92564321    -0.27000
C1081       C  0.31237448  0.69940600  0.91850742    -0.03100
C1082       C  0.31943757  0.70784835  0.92569602     0.09100
C1083       C  0.31370435  0.70780798  0.93750243     0.02900
H1084       H  0.31249447  0.69872775  0.90825792     0.10500
H1085       H  0.31507682  0.71494978  0.94480280     0.09600
N1086       N  0.26936218  0.69069650  0.90790716    -0.34200
N1087       N  0.25941211  0.69720488  0.91200111    -0.26400
C1088       C  0.25145146  0.69910019  0.90212993    -0.01600
C1089       C  0.25671653  0.69345717  0.89145362     0.07000
C1090       C  0.26802676  0.68826748  0.89545846     0.05100
H1091       H  0.24289957  0.70478713  0.90253525     0.10200
H1092       H  0.27526269  0.68395758  0.88955618     0.09000
N1093       N  0.27393882  0.78097323  0.94807651    -0.25400
N1094       N  0.28325972  0.77323160  0.95138476    -0.33200
C1095       C  0.28122737  0.76879591  0.96311146     0.03000
C1096       C  0.27011220  0.77390589  0.96766706     0.09000
C1097       C  0.26569930  0.78172442  0.95796297    -0.04100
H1098       H  0.28755319  0.76240359  0.96805237     0.09700
H1099       H  0.25726204  0.78758766  0.95814448     0.10900
Cu1100     Cu  0.29843652  0.76822622  0.94016601     0.44200
Cu1101     Cu  0.27371988  0.78957567  0.92980360     0.42000
Cu1102     Cu  0.29646820  0.77324906  0.90782883     0.43900
N1103       N  0.31039207  0.75915577  0.92769537    -0.32800
N1104       N  0.30903676  0.76009846  0.91530609    -0.27000
C1105       C  0.31564162  0.75066812  0.90967062    -0.03100
C1106       C  0.32156830  0.74365381  0.91907013     0.09100
C1107       C  0.31797480  0.74930729  0.93033290     0.02900
H1108       H  0.31502739  0.74828149  0.89969036     0.10500
H1109       H  0.31922671  0.74543213  0.93974068     0.09600
N1110       N  0.28544976  0.78889721  0.90317954    -0.34200
N1111       N  0.27737824  0.79504344  0.91067809    -0.26400
C1112       C  0.27244685  0.80487192  0.90400936    -0.01600
C1113       C  0.27780383  0.80484099  0.89192946     0.07000
C1114       C  0.28589416  0.79458377  0.89181862     0.05100
H1115       H  0.26544530  0.81147065  0.90763363     0.10200
H1116       H  0.29170931  0.79138957  0.88396647     0.09000
N1117       N  0.23772522  0.73363223  0.01066150    -0.01600
C1118       C  0.23564381  0.72599928  0.00048276     0.01000
C1119       C  0.22512780  0.71844125  0.00245542    -0.21900
C1120       C  0.22058716  0.72149864  0.01433380    -0.22100
C1121       C  0.22848032  0.73082751  0.01918763     0.00900
H1122       H  0.22145293  0.71115466  0.99616631     0.14700
H1123       H  0.21274545  0.71695489  0.01915965     0.14700
N1124       N  0.26435953  0.76097620  0.01384926    -0.01600
C1125       C  0.26768205  0.77010710  0.00540729     0.01000
C1126       C  0.27642221  0.77827414  0.01087941    -0.21900
C1127       C  0.27855690  0.77403892  0.02304279    -0.22100
C1128       C  0.27105560  0.76342357  0.02458350     0.00900
H1129       H  0.28119164  0.78612495  0.00632200     0.14700
H1130       H  0.28522954  0.77798041  0.02982894     0.14700
N1131       N  0.21703170  0.72773036  0.07648275    -0.25400
N1132       N  0.22181573  0.71679546  0.07252015    -0.33200
C1133       C  0.22569683  0.71786100  0.06046411     0.03000
C1134       C  0.22332205  0.73001360  0.05645152     0.09000
C1135       C  0.21770762  0.73609872  0.06677790    -0.04100
H1136       H  0.23012377  0.71031313  0.05504919     0.09700
H1137       H  0.21447443  0.74583343  0.06723169     0.10900
Cu1138     Cu  0.22470732  0.70101124  0.08357613     0.44200
Cu1139     Cu  0.21062434  0.73003876  0.09537276     0.42000
Cu1140     Cu  0.22571733  0.70591516  0.11612382     0.43900
N1141       N  0.23401670  0.68864044  0.09540838    -0.32800
N1142       N  0.23535539  0.69098775  0.10763385    -0.27000
C1143       C  0.24469247  0.68357805  0.11223630    -0.03100
C1144       C  0.24931304  0.67613045  0.10239272     0.09100
C1145       C  0.24233810  0.67965160  0.09188705     0.02900
H1146       H  0.24883654  0.68465959  0.12158337     0.10500
H1147       H  0.24450435  0.67732500  0.08211170     0.09600
N1148       N  0.21245419  0.71920204  0.12209679    -0.34200
N1149       N  0.20665422  0.72771993  0.11490679    -0.26400
C1150       C  0.19803961  0.73394751  0.12216820    -0.01600
C1151       C  0.19850220  0.72899097  0.13433907     0.07000
C1152       C  0.20775889  0.71978524  0.13392461     0.05100
H1153       H  0.19189678  0.74145769  0.11883653     0.10200
H1154       H  0.21080627  0.71379790  0.14166057     0.09000
N1155       N  0.28592454  0.73728580  0.07491684    -0.25400
N1156       N  0.28560219  0.72677247  0.06799186    -0.33200
C1157       C  0.28083879  0.72942700  0.05645031     0.03000
C1158       C  0.27803232  0.74220254  0.05606660     0.09000
C1159       C  0.28141425  0.74694430  0.06787809    -0.04100
H1160       H  0.27974398  0.72259075  0.04882811     0.09700
H1161       H  0.28090764  0.75672053  0.07102732     0.10900
Cu1162     Cu  0.29148506  0.70918534  0.07448330     0.44200
Cu1163     Cu  0.29285329  0.73787569  0.09354464     0.42000
Cu1164     Cu  0.30519933  0.70792138  0.10536394     0.43900
N1165       N  0.29338339  0.69248177  0.08456662    -0.32800
N1166       N  0.29831645  0.69204756  0.09608025    -0.27000
C1167       C  0.29357916  0.68191948  0.10215519    -0.03100
C1168       C  0.28504781  0.67580845  0.09422548     0.09100
C1169       C  0.28551816  0.68256002  0.08302124     0.02900
H1170       H  0.29402513  0.68085229  0.11235369     0.10500
H1171       H  0.27845428  0.68209351  0.07555016     0.09600
N1172       N  0.30513510  0.72455620  0.11583838    -0.34200
N1173       N  0.30030777  0.73540441  0.11178764    -0.26400
C1174       C  0.30028993  0.74378758  0.12149767    -0.01600
C1175       C  0.30533577  0.73788308  0.13204821     0.07000
C1176       C  0.30826724  0.72572543  0.12816426     0.05100
H1177       H  0.29639747  0.75327498  0.12104543     0.10200
H1178       H  0.31178138  0.71807948  0.13401052     0.09000
N1179       N  0.25363484  0.94929935  0.72399513    -0.25400
N1180       N  0.26438715  0.95586817  0.72452089    -0.33200
C1181       C  0.26194124  0.96771631  0.72857847     0.03000
C1182       C  0.24911108  0.96873249  0.73076488     0.09000
C1183       C  0.24404252  0.95696292  0.72774274    -0.04100
H1184       H  0.26908372  0.97495047  0.73016914     0.09700
H1185       H  0.23418889  0.95410537  0.72845443     0.10900
Cu1186     Cu  0.28251285  0.94888169  0.72161479     0.44200
Cu1187     Cu  0.25253738  0.92995002  0.71898853     0.42000
Cu1188     Cu  0.28425770  0.91647362  0.71769442     0.43900
N1189       N  0.29955432  0.93936507  0.72360190    -0.32800
N1190       N  0.30009816  0.92694810  0.72221144    -0.27000
C1191       C  0.31093705  0.92264295  0.72735140    -0.03100
C1192       C  0.31756311  0.93285384  0.73229426     0.09100
C1193       C  0.31006597  0.94332984  0.72972419     0.02900
H1194       H  0.31279635  0.91272969  0.72923350     0.10500
H1195       H  0.31112421  0.95269795  0.73385350     0.09600
N1196       N  0.26795258  0.90632626  0.71425574    -0.34200
N1197       N  0.25620219  0.91079886  0.71454279    -0.26400
C1198       C  0.24814841  0.90114641  0.71172808    -0.01600
C1199       C  0.25537823  0.89030527  0.70960311     0.07000
C1200       C  0.26777003  0.89395172  0.71135442     0.05100
H1201       H  0.23790027  0.90194023  0.71134805     0.10200
H1202       H  0.27613044  0.88800916  0.71064520     0.09000
N1203       N  0.27595788  0.94440717  0.79366628    -0.25400
N1204       N  0.28697334  0.95042578  0.79282142    -0.33200
C1205       C  0.28515046  0.96211882  0.78828922     0.03000
C1206       C  0.27241007  0.96383998  0.78612564     0.09000
C1207       C  0.26669589  0.95244954  0.78967529    -0.04100
H1208       H  0.29269883  0.96881989  0.78636209     0.09700
H1209       H  0.25667665  0.95015702  0.78926081     0.10900
Cu1210     Cu  0.30470844  0.94260892  0.79499869     0.44200
Cu1211     Cu  0.27526786  0.92525964  0.79988468     0.42000
Cu1212     Cu  0.30641166  0.91023231  0.79418779     0.43900
N1213       N  0.31909063  0.93368775  0.78535375    -0.32800
N1214       N  0.31919413  0.92123773  0.78416428    -0.27000
C1215       C  0.32529879  0.91813016  0.77338697    -0.03100
C1216       C  0.32913242  0.92919570  0.76747371     0.09100
C1217       C  0.32515647  0.93884365  0.77544500     0.02900
H1218       H  0.32477981  0.90883083  0.76900443     0.10500
H1219       H  0.32421373  0.94871926  0.77283366     0.09600
N1220       N  0.29174728  0.90180796  0.80420830    -0.34200
N1221       N  0.28036091  0.90681467  0.80623970    -0.26400
C1222       C  0.27333993  0.89826406  0.81276055    -0.01600
C1223       C  0.28076768  0.88757128  0.81494912     0.07000
C1224       C  0.29228031  0.89017559  0.80934144     0.05100
H1225       H  0.26352501  0.89962648  0.81550123     0.10200
H1226       H  0.30041086  0.88391493  0.80873179     0.09000
N1227       N  0.26963713  0.00902033  0.76989472    -0.01600
C1228       C  0.27295930  0.99943151  0.77778517     0.01000
C1229       C  0.28368965  0.00275413  0.78461991    -0.21900
C1230       C  0.28706182  0.01478504  0.78085772    -0.22100
C1231       C  0.27828132  0.01838629  0.77184176     0.00900
H1232       H  0.28871451  0.99692148  0.79139867     0.14700
H1233       H  0.29516679  0.02020663  0.78417223     0.14700
N1234       N  0.23849744  0.01164405  0.74784590    -0.01600
C1235       C  0.23115980  0.02207266  0.74627170     0.01000
C1236       C  0.22061235  0.01907050  0.73901726    -0.21900
C1237       C  0.22154392  0.00635786  0.73599921    -0.22100
C1238       C  0.23262721  0.00208202  0.74152785     0.00900
H1239       H  0.21347087  0.02559465  0.73556740     0.14700
H1240       H  0.21522173  0.00102999  0.72985214     0.14700
N1241       N  0.23050676  0.07841476  0.73662843    -0.25400
N1242       N  0.23390116  0.07252776  0.72604303    -0.33200
C1243       C  0.23752095  0.06064210  0.72870732     0.03000
C1244       C  0.23628576  0.05876205  0.74154915     0.09000
C1245       C  0.23171234  0.07017752  0.74635519    -0.04100
H1246       H  0.24001031  0.05358161  0.72164093     0.09700
H1247       H  0.22873688  0.07208960  0.75599845     0.10900
Cu1248     Cu  0.23264506  0.07998785  0.70803668     0.44200
Cu1249     Cu  0.22315507  0.09697378  0.73655586     0.42000
Cu1250     Cu  0.22262900  0.11123778  0.70467779     0.43900
N1251       N  0.23670637  0.09028402  0.69201672    -0.32800
N1252       N  0.23389445  0.10244066  0.69121661    -0.27000
C1253       C  0.24247003  0.10812122  0.68367551    -0.03100
C1254       C  0.25110015  0.09907761  0.67955633     0.09100
C1255       C  0.24686780  0.08784223  0.68475719     0.02900
H1256       H  0.24385746  0.11829242  0.68340215     0.10500
H1257       H  0.25253998  0.07933159  0.68574920     0.09600
N1258       N  0.21448019  0.11937022  0.72060475    -0.34200
N1259       N  0.21501069  0.11466965  0.73222766    -0.26400
C1260       C  0.20959101  0.12308794  0.74027050    -0.01600
C1261       C  0.20538907  0.13337892  0.73329587     0.07000
C1262       C  0.20870553  0.13073852  0.72093425     0.05100
H1263       H  0.20901491  0.12193058  0.75044528     0.10200
H1264       H  0.20745345  0.13684025  0.71280631     0.09000
N1265       N  0.29228094  0.07162302  0.75102867    -0.25400
N1266       N  0.29017418  0.06633227  0.73978979    -0.33200
C1267       C  0.28568770  0.05448505  0.74138881     0.03000
C1268       C  0.28490425  0.05216423  0.75421687     0.09000
C1269       C  0.28919845  0.06316143  0.76008970    -0.04100
H1270       H  0.28324617  0.04802599  0.73374759     0.09700
H1271       H  0.29011915  0.06484892  0.77018363     0.10900
Cu1272     Cu  0.29300087  0.07534066  0.72259801     0.44200
Cu1273     Cu  0.29934572  0.09018555  0.75338772     0.42000
Cu1274     Cu  0.30589343  0.10633602  0.72351919     0.43900
N1275       N  0.29313701  0.08715898  0.70697102    -0.32800
N1276       N  0.29758089  0.09886926  0.70737503    -0.27000
C1277       C  0.29320277  0.10527505  0.69725001    -0.03100
C1278       C  0.28580632  0.09711197  0.69004456     0.09100
C1279       C  0.28599357  0.08573945  0.69650257     0.02900
H1280       H  0.29388416  0.11546034  0.69619151     0.10500
H1281       H  0.27980576  0.07769828  0.69478124     0.09600
N1282       N  0.30958203  0.11407313  0.74117292    -0.34200
N1283       N  0.30671334  0.10871842  0.75213699    -0.26400
C1284       C  0.30852536  0.11738448  0.76147866    -0.01600
C1285       C  0.31280977  0.12855168  0.75602164     0.07000
C1286       C  0.31333586  0.12608796  0.74320678     0.05100
H1287       H  0.30626164  0.11588305  0.77136600     0.10200
H1288       H  0.31540928  0.13282203  0.73577767     0.09000
N1289       N  0.26391899  0.80692133  0.71655388    -0.34700
N1290       N  0.26154963  0.80750207  0.68887945    -0.55300
N1291       N  0.25707155  0.83455887  0.68966422    -0.34700
N1292       N  0.25840608  0.83382690  0.71758264    -0.55300
C1293       C  0.26235131  0.79442319  0.71391913     0.28900
C1294       C  0.26182932  0.80853365  0.72914487     0.28900
C1295       C  0.25403455  0.83210081  0.67737604     0.28900
C1296       C  0.25243019  0.84618503  0.69263189     0.28900
C1297       C  0.26497315  0.79525474  0.69040308     0.37500
C1298       C  0.26186077  0.80979521  0.67627688     0.37500
C1299       C  0.26209864  0.83208117  0.72977436     0.37500
C1300       C  0.25810315  0.84651289  0.71569808     0.37500
C1301       C  0.25945066  0.78801105  0.72500832    -0.20000
C1302       C  0.25911475  0.79690588  0.73459747    -0.20000
C1303       C  0.24764546  0.84245571  0.67239483    -0.20000
C1304       C  0.24667115  0.85134815  0.68199834    -0.20000
C1305       C  0.26764537  0.78976665  0.67872298    -0.21000
C1306       C  0.26570345  0.79897998  0.66977839    -0.21000
C1307       C  0.26418154  0.84370143  0.73563162    -0.21000
C1308       C  0.26157736  0.85283046  0.72676389    -0.21000
C1309       C  0.26399696  0.78853329  0.70191147    -0.16400
C1310       C  0.26271670  0.82016258  0.73590906    -0.16400
C1311       C  0.25392034  0.85251402  0.70444644    -0.16400
C1312       C  0.25712095  0.82089876  0.67049283    -0.16400
H1313       H  0.25778913  0.77794251  0.72611687     0.16500
H1314       H  0.25702586  0.79501558  0.74445826     0.16500
H1315       H  0.24407579  0.84351957  0.66282444     0.16500
H1316       H  0.24223401  0.86057655  0.68123030     0.16500
H1317       H  0.27024554  0.78001065  0.67679283     0.14800
H1318       H  0.26653377  0.79770925  0.65961641     0.14800
H1319       H  0.26713640  0.84545184  0.74532257     0.14800
H1320       H  0.26212483  0.86297504  0.72832832     0.14800
H1321       H  0.26741728  0.81373909  0.71038471     0.28100
H1322       H  0.26297970  0.82916313  0.69539271     0.28100
N1323       N  0.25585145  0.71399140  0.80844352    -0.34700
N1324       N  0.25239661  0.68674371  0.80588556    -0.55300
N1325       N  0.24900644  0.68467496  0.83328518    -0.34700
N1326       N  0.25344348  0.71197987  0.83587033    -0.55300
C1327       C  0.25919490  0.71239425  0.79613070     0.28900
C1328       C  0.25943742  0.72583510  0.81194598     0.28900
C1329       C  0.25012594  0.67226612  0.83000274     0.28900
C1330       C  0.25109429  0.68559679  0.84594992     0.28900
C1331       C  0.25249652  0.68984015  0.79345450     0.37500
C1332       C  0.24863529  0.67449807  0.80649147     0.37500
C1333       C  0.25381357  0.72478359  0.83497851     0.37500
C1334       C  0.25083850  0.70925202  0.84811821     0.37500
C1335       C  0.26481972  0.72339507  0.79170447    -0.20000
C1336       C  0.26490528  0.73189093  0.80162380    -0.20000
C1337       C  0.25266425  0.66518090  0.84076016    -0.20000
C1338       C  0.25328267  0.67357296  0.85080356    -0.20000
C1339       C  0.24880878  0.67951441  0.78612788    -0.21000
C1340       C  0.24636370  0.66979723  0.79437853    -0.21000
C1341       C  0.25149934  0.73022433  0.84675794    -0.21000
C1342       C  0.24963815  0.72039811  0.85507794    -0.21000
C1343       C  0.25667605  0.70156924  0.78853844    -0.16400
C1344       C  0.25729547  0.73158996  0.82395346    -0.16400
C1345       C  0.25069292  0.69689915  0.85332230    -0.16400
C1346       C  0.24858295  0.66712419  0.81763686    -0.16400
H1347       H  0.26833353  0.72520235  0.78223851     0.16500
H1348       H  0.26848223  0.74149666  0.80114010     0.16500
H1349       H  0.25398854  0.65501485  0.84132163     0.16500
H1350       H  0.25516697  0.67108301  0.86057484     0.16500
H1351       H  0.24815405  0.67896796  0.77588975     0.14800
H1352       H  0.24351523  0.66027026  0.79173620     0.14800
H1353       H  0.25147885  0.74021667  0.84918587     0.14800
H1354       H  0.24786385  0.72135058  0.86515118     0.14800
H1355       H  0.25020654  0.70792169  0.81370918     0.28100
H1356       H  0.24585982  0.69191015  0.82742468     0.28100
N1357       N  0.26073738  0.71534269  0.71465349    -0.34700
N1358       N  0.26287530  0.68784384  0.71525870    -0.55300
N1359       N  0.26061080  0.68701682  0.68724591    -0.34700
N1360       N  0.25923062  0.71469655  0.68671997    -0.55300
C1361       C  0.26304215  0.71366662  0.72718570     0.28900
C1362       C  0.26263075  0.72778163  0.71211153     0.28900
C1363       C  0.26171321  0.67440447  0.68957548     0.28900
C1364       C  0.25897110  0.68864722  0.67454914     0.28900
C1365       C  0.26218379  0.68998835  0.72792890     0.37500
C1366       C  0.26290599  0.67510474  0.71356438     0.37500
C1367       C  0.25849898  0.72738935  0.68858727     0.37500
C1368       C  0.25705332  0.71250878  0.67422687     0.37500
C1369       C  0.26615690  0.72520761  0.73273306    -0.20000
C1370       C  0.26592851  0.73408853  0.72325746    -0.20000
C1371       C  0.26085623  0.66788354  0.67813062    -0.20000
C1372       C  0.25908208  0.67681028  0.66871533    -0.20000
C1373       C  0.26183441  0.67854852  0.73432357    -0.21000
C1374       C  0.26245781  0.66917381  0.72529961    -0.21000
C1375       C  0.25587624  0.73334097  0.67718888    -0.21000
C1376       C  0.25489867  0.72396283  0.66814432    -0.21000
C1377       C  0.26222645  0.70208700  0.73389530    -0.16400
C1378       C  0.26087691  0.73381715  0.70022073    -0.16400
C1379       C  0.25721021  0.70043986  0.66808075    -0.16400
C1380       C  0.26311112  0.66856212  0.70171567    -0.16400
H1381       H  0.26845824  0.72704001  0.74258774     0.16500
H1382       H  0.26785684  0.74410167  0.72452877     0.16500
H1383       H  0.26125690  0.65771244  0.67670978     0.16500
H1384       H  0.25793086  0.67478145  0.65870269     0.16500
H1385       H  0.26120057  0.67702365  0.74444148     0.14800
H1386       H  0.26228819  0.65910328  0.72722727     0.14800
H1387       H  0.25487495  0.74341071  0.67550269     0.14800
H1388       H  0.25293797  0.72547007  0.65818612     0.14800
H1389       H  0.25680696  0.70868713  0.70853609     0.28100
H1390       H  0.26106424  0.69408860  0.69400800     0.28100
N1391       N  0.26738904  0.80451119  0.80962609    -0.34700
N1392       N  0.27056138  0.83194136  0.80984939    -0.55300
N1393       N  0.27403737  0.83167286  0.83757418    -0.34700
N1394       N  0.26956600  0.80433893  0.83730177    -0.55300
C1395       C  0.26430832  0.80714165  0.79743886     0.28900
C1396       C  0.26339293  0.79255314  0.81205970     0.28900
C1397       C  0.27329508  0.84436530  0.83557941     0.28900
C1398       C  0.27287646  0.82959626  0.85023438     0.28900
C1399       C  0.27102273  0.82984172  0.79715786     0.37500
C1400       C  0.27425750  0.84411021  0.81176575     0.37500
C1401       C  0.26921340  0.79168104  0.83504969     0.37500
C1402       C  0.27274984  0.80582907  0.84967085     0.37500
C1403       C  0.25842861  0.79666214  0.79199699    -0.20000
C1404       C  0.25787675  0.78745384  0.80119924    -0.20000
C1405       C  0.27195056  0.85047813  0.84719663    -0.20000
C1406       C  0.27169497  0.84118301  0.85641652    -0.20000
C1407       C  0.27498511  0.84071415  0.79099365    -0.21000
C1408       C  0.27700442  0.84973474  0.80019973    -0.21000
C1409       C  0.27205661  0.78512884  0.84605494    -0.21000
C1410       C  0.27434082  0.79403409  0.85524939    -0.21000
C1411       C  0.26718787  0.81851888  0.79093081    -0.16400
C1412       C  0.26535787  0.78585990  0.82353464    -0.16400
C1413       C  0.27328007  0.81755760  0.85631851    -0.16400
C1414       C  0.27436327  0.85055215  0.82363149    -0.16400
H1415       H  0.25497660  0.79570374  0.78235980     0.16500
H1416       H  0.25397778  0.77802683  0.79994497     0.16500
H1417       H  0.27127040  0.86059659  0.84887219     0.16500
H1418       H  0.27075606  0.84278259  0.86652313     0.16500
H1419       H  0.27617930  0.84206353  0.78089320     0.14800
H1420       H  0.28007410  0.85937927  0.79851208     0.14800
H1421       H  0.27222489  0.77497238  0.84746799     0.14800
H1422       H  0.27666813  0.79195249  0.86500090     0.14800
H1423       H  0.27314267  0.81000580  0.81547324     0.28100
H1424       H  0.27636602  0.82491869  0.83078258     0.28100
N1425       N  0.27165451  0.57441655  0.72955550    -0.25400
N1426       N  0.28282376  0.56906786  0.73175461    -0.33200
C1427       C  0.28114432  0.55686561  0.73490687     0.03000
C1428       C  0.26833792  0.55422714  0.73470254     0.09000
C1429       C  0.26250505  0.56551557  0.73119638    -0.04100
H1430       H  0.28876265  0.55035115  0.73715263     0.09700
H1431       H  0.25243743  0.56709663  0.72981710     0.10900
Cu1432     Cu  0.30012557  0.57829825  0.73169333     0.44200
Cu1433     Cu  0.27011269  0.59372358  0.72437486     0.42000
Cu1434     Cu  0.29963091  0.61134204  0.73120715     0.43900
N1435       N  0.31468460  0.58888844  0.73940997    -0.32800
N1436       N  0.31400558  0.60135809  0.74021755    -0.27000
C1437       C  0.32125764  0.60529566  0.75000317    -0.03100
C1438       C  0.32670257  0.59477304  0.75566797     0.09100
C1439       C  0.32248995  0.58459039  0.74849452     0.02900
H1440       H  0.32062348  0.61469426  0.75414693     0.10500
H1441       H  0.32271338  0.57476703  0.75143914     0.09600
N1442       N  0.28409149  0.61892068  0.72172492    -0.34200
N1443       N  0.27332466  0.61285016  0.71922014    -0.26400
C1444       C  0.26555905  0.62082913  0.71282581    -0.01600
C1445       C  0.27184809  0.63230434  0.71120268     0.07000
C1446       C  0.28347369  0.63074111  0.71702829     0.05100
H1447       H  0.25606854  0.61846506  0.70962115     0.10200
H1448       H  0.29097149  0.63773368  0.71786142     0.09000
N1449       N  0.25109315  0.57397696  0.78618549    -0.25400
N1450       N  0.26156762  0.56708566  0.78509936    -0.33200
C1451       C  0.25868951  0.55573899  0.77997377     0.03000
C1452       C  0.24581185  0.55535768  0.77772660     0.09000
C1453       C  0.24120835  0.56702038  0.78180380    -0.04100
H1454       H  0.26544751  0.54814716  0.77844021     0.09700
H1455       H  0.23138250  0.57004842  0.78198431     0.10900
Cu1456     Cu  0.27948054  0.57265677  0.79096781     0.44200
Cu1457     Cu  0.25089539  0.59229566  0.79427038     0.42000
Cu1458     Cu  0.28238526  0.60238620  0.80549505     0.43900
N1459       N  0.29698007  0.58086789  0.79444310    -0.32800
N1460       N  0.29808113  0.59222073  0.79964709    -0.27000
C1461       C  0.30965653  0.59691851  0.79698528    -0.03100
C1462       C  0.31617117  0.58808439  0.78974461     0.09100
C1463       C  0.30786149  0.57797568  0.78846060     0.02900
H1464       H  0.31221318  0.60679797  0.79822238     0.10500
H1465       H  0.30873023  0.57027572  0.78167484     0.09600
N1466       N  0.26605013  0.61303061  0.80746892    -0.34200
N1467       N  0.25463199  0.60982887  0.80320096    -0.26400
C1468       C  0.24666431  0.61969510  0.80523835    -0.01600
C1469       C  0.25348603  0.62936381  0.81109224     0.07000
C1470       C  0.26567329  0.62483330  0.81229215     0.05100
H1471       H  0.23679648  0.61994767  0.80233934     0.10200
H1472       H  0.27384462  0.62993421  0.81593496     0.09000
N1473       N  0.22878582  0.51195411  0.76568676    -0.01600
C1474       C  0.21913197  0.50372832  0.76789539     0.01000
C1475       C  0.20962585  0.50963135  0.77476018    -0.21900
C1476       C  0.21359362  0.52193877  0.77688066    -0.22100
C1477       C  0.22534425  0.52308810  0.77118641     0.00900
H1478       H  0.20076003  0.50546407  0.77786307     0.14700
H1479       H  0.20849910  0.52921463  0.78207654     0.14700
N1480       N  0.25970644  0.50738780  0.74365759    -0.01600
C1481       C  0.26456296  0.51689087  0.73648478     0.01000
C1482       C  0.27406726  0.51234069  0.72868751    -0.21900
C1483       C  0.27516343  0.49960181  0.73112886    -0.22100
C1484       C  0.26633939  0.49680943  0.74038088     0.00900
H1485       H  0.27978766  0.51776208  0.72212841     0.14700
H1486       H  0.28176773  0.49307271  0.72669442     0.14700
N1487       N  0.27921346  0.44144727  0.73683715    -0.25400
N1488       N  0.27678189  0.44659622  0.72567691    -0.33200
C1489       C  0.27170104  0.45812628  0.72733275     0.03000
C1490       C  0.27082081  0.46056629  0.74010779     0.09000
C1491       C  0.27579596  0.44986675  0.74599700    -0.04100
H1492       H  0.26882691  0.46432540  0.71969785     0.09700
H1493       H  0.27691193  0.44835538  0.75607997     0.10900
Cu1494     Cu  0.27852843  0.43780547  0.70830059     0.44200
Cu1495     Cu  0.28682522  0.42299153  0.73803865     0.42000
Cu1496     Cu  0.28348102  0.40573253  0.70728241     0.43900
N1497       N  0.27082721  0.42689894  0.69403738    -0.32800
N1498       N  0.27184017  0.41444264  0.69418024    -0.27000
C1499       C  0.26181433  0.40937409  0.68803280    -0.03100
C1500       C  0.25413698  0.41916769  0.68383178     0.09100
C1501       C  0.26027575  0.43011948  0.68767225     0.02900
H1502       H  0.25910512  0.39949141  0.68869443     0.10500
H1503       H  0.25598599  0.43943918  0.68827381     0.09600
N1504       N  0.29323794  0.39904784  0.72289878    -0.34200
N1505       N  0.29416682  0.40477596  0.73409770    -0.26400
C1506       C  0.29987782  0.39672781  0.74224241    -0.01600
C1507       C  0.30270365  0.38561120  0.73576003     0.07000
C1508       C  0.29835016  0.38740844  0.72360314     0.05100
H1509       H  0.30126015  0.39858009  0.75225593     0.10200
H1510       H  0.29811711  0.38044799  0.71601662     0.09000
N1511       N  0.20614860  0.44761379  0.75287774    -0.25400
N1512       N  0.20724030  0.45260251  0.74141375    -0.33200
C1513       C  0.21090931  0.46477772  0.74241779     0.03000
C1514       C  0.21226676  0.46772217  0.75506175     0.09000
C1515       C  0.20912603  0.45669873  0.76151052    -0.04100
H1516       H  0.21266145  0.47097347  0.73445690     0.09700
H1517       H  0.20909817  0.45536113  0.77167895     0.10900
Cu1518     Cu  0.20522683  0.44295573  0.72443887     0.44200
Cu1519     Cu  0.20095075  0.42843980  0.75595805     0.42000
Cu1520     Cu  0.19839429  0.41075087  0.72605333     0.43900
N1521       N  0.20796254  0.43103976  0.70909727    -0.32800
N1522       N  0.20565483  0.41876759  0.70979849    -0.27000
C1523       C  0.21166559  0.41279179  0.70023194    -0.03100
C1524       C  0.21802988  0.42177063  0.69314032     0.09100
C1525       C  0.21545022  0.43323497  0.69903485     0.02900
H1526       H  0.21292646  0.40261339  0.69966964     0.10500
H1527       H  0.22032956  0.44212149  0.69740196     0.09600
N1528       N  0.19424582  0.40319578  0.74357756    -0.34200
N1529       N  0.19543724  0.40912172  0.75463355    -0.26400
C1530       C  0.19289135  0.40066807  0.76393521    -0.01600
C1531       C  0.18991231  0.38905857  0.75830780     0.07000
C1532       C  0.19092421  0.39106047  0.74547965     0.05100
H1533       H  0.19348271  0.40271594  0.77398791     0.10200
H1534       H  0.18980504  0.38405363  0.73801545     0.09000
N1535       N  0.29373181  0.30416195  0.75667604    -0.34700
N1536       N  0.32139195  0.30311899  0.75264941    -0.55300
N1537       N  0.32142030  0.32997823  0.74686502    -0.34700
N1538       N  0.29403027  0.33124779  0.75228491    -0.55300
C1539       C  0.29631933  0.29238506  0.76103112     0.28900
C1540       C  0.28173870  0.30714124  0.76032889     0.28900
C1541       C  0.33408614  0.32767391  0.74661490     0.28900
C1542       C  0.31979579  0.34270994  0.74707943     0.28900
C1543       C  0.31887245  0.29059223  0.75364666     0.37500
C1544       C  0.33329434  0.30406059  0.74788459     0.37500
C1545       C  0.28127279  0.32954720  0.75286506     0.37500
C1546       C  0.29596300  0.34326844  0.74827980     0.37500
C1547       C  0.28580395  0.28776616  0.76745426    -0.20000
C1548       C  0.27659043  0.29703293  0.76694937    -0.20000
C1549       C  0.34061651  0.33910565  0.74649496    -0.20000
C1550       C  0.33160844  0.34858988  0.74681360    -0.20000
C1551       C  0.32928891  0.28355080  0.74966697    -0.21000
C1552       C  0.33841458  0.29207203  0.74602615    -0.21000
C1553       C  0.27508874  0.34062098  0.74945348    -0.21000
C1554       C  0.28435803  0.34928738  0.74655360    -0.21000
C1555       C  0.30755859  0.28534901  0.75863575    -0.16400
C1556       C  0.27510680  0.31843299  0.75721521    -0.16400
C1557       C  0.30797735  0.34914647  0.74665175    -0.16400
C1558       C  0.33984155  0.31556487  0.74572700    -0.16400
H1559       H  0.28479193  0.27857914  0.77188109     0.16500
H1560       H  0.26714646  0.29632501  0.77093591     0.16500
H1561       H  0.35080796  0.34047673  0.74609808     0.16500
H1562       H  0.33354338  0.35867657  0.74667387     0.16500
H1563       H  0.33023523  0.27332515  0.74940654     0.14800
H1564       H  0.34776385  0.28969452  0.74245815     0.14800
H1565       H  0.26495321  0.34236450  0.74922841     0.14800
H1566       H  0.28270389  0.35895633  0.74357051     0.14800
H1567       H  0.29925251  0.30919204  0.75030076     0.28100
H1568       H  0.31430236  0.32331810  0.74548714     0.28100
N1569       N  0.20646690  0.21340915  0.76233289    -0.34700
N1570       N  0.20803102  0.18687687  0.75396536    -0.55300
N1571       N  0.18155169  0.18724888  0.74726518    -0.34700
N1572       N  0.17966961  0.21358900  0.75694377    -0.55300
C1573       C  0.21759648  0.20959025  0.76748446     0.28900
C1574       C  0.20255846  0.22384403  0.76882423     0.28900
C1575       C  0.18387978  0.17465337  0.74613200     0.28900
C1576       C  0.16881277  0.18884810  0.74758495     0.28900
C1577       C  0.22049498  0.18959607  0.75529396     0.37500
C1578       C  0.20740490  0.17581260  0.74745360     0.37500
C1579       C  0.18218470  0.22619467  0.75764729     0.37500
C1580       C  0.16894017  0.21232029  0.74996139     0.37500
C1581       C  0.22081023  0.21756477  0.77746819    -0.20000
C1582       C  0.21117154  0.22639325  0.77851060    -0.20000
C1583       C  0.17242934  0.16814883  0.74551646    -0.20000
C1584       C  0.16289845  0.17712322  0.74644417    -0.20000
C1585       C  0.22783611  0.18020452  0.74965465    -0.21000
C1586       C  0.21953574  0.17144842  0.74471230    -0.21000
C1587       C  0.17318297  0.23285532  0.75071342    -0.21000
C1588       C  0.16461649  0.22411239  0.74616828    -0.21000
C1589       C  0.22531322  0.19972850  0.76263995    -0.16400
C1590       C  0.19204718  0.23155175  0.76524095    -0.16400
C1591       C  0.16259249  0.20073072  0.74761266    -0.16400
C1592       C  0.19607350  0.16910652  0.74491542    -0.16400
H1593       H  0.22922018  0.21706668  0.78337296     0.16500
H1594       H  0.21071757  0.23394548  0.78548957     0.16500
H1595       H  0.17108342  0.15802717  0.74434071     0.16500
H1596       H  0.15278517  0.17525779  0.74604097     0.16500
H1597       H  0.23810150  0.17953271  0.74941961     0.14800
H1598       H  0.22214981  0.16276985  0.73983841     0.14800
H1599       H  0.17277140  0.24295078  0.74899066     0.14800
H1600       H  0.15630101  0.22617291  0.74048030     0.14800
H1601       H  0.20267578  0.21007347  0.75380646     0.28100
H1602       H  0.18817444  0.19451378  0.74642751     0.28100
N1603       N  0.20256019  0.30599979  0.76911019    -0.34700
N1604       N  0.17568826  0.30515282  0.77479152    -0.55300
N1605       N  0.17445244  0.33290524  0.77389388    -0.34700
N1606       N  0.20135690  0.33348337  0.76705051    -0.55300
C1607       C  0.19939240  0.29379027  0.76645754     0.28900
C1608       C  0.21321177  0.30872775  0.76244413     0.28900
C1609       C  0.16189436  0.32988043  0.77383677     0.28900
C1610       C  0.17559452  0.34510910  0.77003477     0.28900
C1611       C  0.17931112  0.29337207  0.77835977     0.37500
C1612       C  0.16432805  0.30743564  0.78033461     0.37500
C1613       C  0.21410360  0.33189190  0.76606454     0.37500
C1614       C  0.19931032  0.34609722  0.76839950     0.37500
C1615       C  0.20784204  0.28897864  0.75753128    -0.20000
C1616       C  0.21677639  0.29824057  0.75533384    -0.20000
C1617       C  0.15493262  0.34040564  0.77013487    -0.20000
C1618       C  0.16355820  0.35002333  0.76781320    -0.20000
C1619       C  0.17042167  0.28841175  0.78669858    -0.21000
C1620       C  0.16074964  0.29716856  0.78763384    -0.21000
C1621       C  0.22018155  0.34354215  0.76662398    -0.21000
C1622       C  0.21082744  0.35253746  0.76805428    -0.21000
C1623       C  0.18972103  0.28678159  0.77279579    -0.16400
C1624       C  0.22014275  0.32019594  0.76335093    -0.16400
C1625       C  0.18718442  0.35196820  0.76882678    -0.16400
C1626       C  0.15664877  0.31808197  0.77772868    -0.16400
H1627       H  0.20774549  0.27969928  0.75309868     0.16500
H1628       H  0.22484570  0.29732781  0.74906005     0.16500
H1629       H  0.14469871  0.34114070  0.76934771     0.16500
H1630       H  0.16122585  0.35953825  0.76478214     0.16500
H1631       H  0.17067517  0.27932026  0.79140232     0.14800
H1632       H  0.15208727  0.29613472  0.79306345     0.14800
H1633       H  0.23025193  0.34541565  0.76566617     0.14800
H1634       H  0.21233473  0.36268875  0.76854003     0.14800
H1635       H  0.19863493  0.31164221  0.77625596     0.28100
H1636       H  0.18177016  0.32728076  0.77737579     0.28100
N1637       N  0.29810814  0.21169796  0.76682662    -0.34700
N1638       N  0.32566640  0.21324155  0.76671038    -0.55300
N1639       N  0.32677529  0.18544410  0.76600244    -0.34700
N1640       N  0.29903155  0.18403115  0.76793300    -0.55300
C1641       C  0.29978754  0.22425893  0.76893455     0.28900
C1642       C  0.28592470  0.20899848  0.76983478     0.28900
C1643       C  0.33935873  0.18811702  0.76688213     0.28900
C1644       C  0.32531807  0.17273426  0.76726722     0.28900
C1645       C  0.32297325  0.22561024  0.76461264     0.37500
C1646       C  0.33821260  0.21177411  0.76436123     0.37500
C1647       C  0.28633063  0.18556842  0.76650798     0.37500
C1648       C  0.30149809  0.17160320  0.76579387     0.37500
C1649       C  0.28857199  0.22958539  0.77333304    -0.20000
C1650       C  0.27982723  0.21995410  0.77392303    -0.20000
C1651       C  0.34602102  0.17690951  0.76867159    -0.20000
C1652       C  0.33718879  0.16722693  0.76890013    -0.20000
C1653       C  0.33388115  0.23207852  0.76114711    -0.21000
C1654       C  0.34353674  0.22336261  0.76107611    -0.21000
C1655       C  0.28064070  0.17402057  0.76375123    -0.21000
C1656       C  0.29022081  0.16517143  0.76334784    -0.21000
C1657       C  0.31087985  0.23124483  0.76616626    -0.16400
C1658       C  0.27978210  0.19722387  0.76789247    -0.16400
C1659       C  0.31370956  0.16589346  0.76613590    -0.16400
C1660       C  0.34505094  0.20023228  0.76523157    -0.16400
H1661       H  0.28682204  0.23943334  0.77572196     0.16500
H1662       H  0.27000726  0.22095179  0.77682155     0.16500
H1663       H  0.35621667  0.17578657  0.76949574     0.16500
H1664       H  0.33930089  0.15723702  0.76995190     0.16500
H1665       H  0.33481983  0.24202940  0.75885211     0.14800
H1666       H  0.35333804  0.22535031  0.75869335     0.14800
H1667       H  0.27064848  0.17215819  0.76212709     0.14800
H1668       H  0.28901039  0.15515990  0.76133973     0.14800
H1669       H  0.30428392  0.20576917  0.76193066     0.28100
H1670       H  0.31974450  0.19173785  0.76334561     0.28100
N1671       N  0.71103413  0.23907857  0.93666578    -0.25400
N1672       N  0.71237931  0.22690928  0.93939516    -0.33200
C1673       C  0.71560275  0.22569951  0.95165794     0.03000
C1674       C  0.71631514  0.23762060  0.95701744     0.09000
C1675       C  0.71327502  0.24594591  0.94731807    -0.04100
H1676       H  0.71710602  0.21673226  0.95637949     0.09700
H1677       H  0.71252519  0.25616493  0.94799911     0.10900
Cu1678     Cu  0.71042794  0.21211615  0.92658972     0.44200
Cu1679     Cu  0.70613412  0.24523943  0.91836367     0.42000
Cu1680     Cu  0.71039324  0.21964375  0.89458531     0.43900
N1681       N  0.71505541  0.19890297  0.91286381    -0.32800
N1682       N  0.71617132  0.20204727  0.90083507    -0.27000
C1683       C  0.72406595  0.19379934  0.89507580    -0.03100
C1684       C  0.72810362  0.18503050  0.90395492     0.09100
C1685       C  0.72198116  0.18846719  0.91503765     0.02900
H1686       H  0.72831734  0.19543843  0.88588484     0.10500
H1687       H  0.72458829  0.18536215  0.92446191     0.09600
N1688       N  0.70329278  0.23746621  0.89072627    -0.34200
N1689       N  0.70161567  0.24683290  0.89899939    -0.26400
C1690       C  0.69663840  0.25686939  0.89278836    -0.01600
C1691       C  0.69510705  0.25346035  0.88016006     0.07000
C1692       C  0.69946353  0.24121241  0.87920891     0.05100
H1693       H  0.69441223  0.26593425  0.89710903     0.10200
H1694       H  0.69993262  0.23542282  0.87070875     0.09000
N1695       N  0.78182978  0.24040977  0.94295871    -0.25400
N1696       N  0.77701993  0.22969240  0.94741135    -0.33200
C1697       C  0.77219813  0.23168149  0.95906084     0.03000
C1698       C  0.77394496  0.24422430  0.96228057     0.09000
C1699       C  0.78013202  0.24954756  0.95190624    -0.04100
H1700       H  0.76765672  0.22447050  0.96474988     0.09700
H1701       H  0.78314520  0.25931191  0.95094470     0.10900
Cu1702     Cu  0.77624335  0.21258033  0.93775020     0.44200
Cu1703     Cu  0.79039470  0.24164234  0.92465290     0.42000
Cu1704     Cu  0.79257499  0.21035106  0.90930596     0.43900
N1705       N  0.77368745  0.19740290  0.92550820    -0.32800
N1706       N  0.77982798  0.19660829  0.91464379    -0.27000
C1707       C  0.77379581  0.18831826  0.90697597    -0.03100
C1708       C  0.76339581  0.18358007  0.91339120     0.09100
C1709       C  0.76366052  0.18952623  0.92512441     0.02900
H1710       H  0.77559073  0.18744733  0.89690176     0.10500
H1711       H  0.75596650  0.18977574  0.93193153     0.09600
N1712       N  0.79985922  0.22669837  0.90165902    -0.34200
N1713       N  0.79857786  0.23829020  0.90641951    -0.26400
C1714       C  0.80254458  0.24661481  0.89748481    -0.01600
C1715       C  0.80652268  0.23978922  0.88683797     0.07000
C1716       C  0.80463402  0.22728515  0.88988372     0.05100
H1717       H  0.80199823  0.25682874  0.89841256     0.10200
H1718       H  0.80576223  0.21918049  0.88363496     0.09000
N1719       N  0.72393974  0.23945303  0.00501026    -0.01600
C1720       C  0.71784138  0.23495761  0.01542976     0.01000
C1721       C  0.70600226  0.23034053  0.01208940    -0.21900
C1722       C  0.70475323  0.23200067  0.99921258    -0.22100
C1723       C  0.71585140  0.23762285  0.99512834     0.00900
H1724       H  0.69902716  0.22616537  0.01835215     0.14700
H1725       H  0.69667427  0.22927401  0.99343503     0.14700
N1726       N  0.75649921  0.25944126  0.00526227    -0.01600
C1727       C  0.76619025  0.26071472  0.99684007     0.01000
C1728       C  0.77502052  0.26928651  0.00148817    -0.21900
C1729       C  0.77055451  0.27349014  0.01308367    -0.22100
C1730       C  0.75917158  0.26731519  0.01511493     0.00900
H1731       H  0.78369452  0.27229341  0.99687911     0.14700
H1732       H  0.77502740  0.28043201  0.01924373     0.14700
N1733       N  0.71427045  0.22318254  0.07218692    -0.25400
N1734       N  0.70311169  0.22667345  0.06756184    -0.33200
C1735       C  0.70455827  0.23101996  0.05571427     0.03000
C1736       C  0.71719344  0.23022268  0.05246621     0.09000
C1737       C  0.72317608  0.22511823  0.06308689    -0.04100
H1738       H  0.69686108  0.23437308  0.04979188     0.09700
H1739       H  0.73315759  0.22284579  0.06405536     0.10900
Cu1740     Cu  0.68610401  0.22628129  0.07726739     0.44200
Cu1741     Cu  0.71586164  0.21610538  0.09094891     0.42000
Cu1742     Cu  0.68680356  0.22295706  0.10989564     0.43900
N1743       N  0.67170056  0.23322021  0.08850959    -0.32800
N1744       N  0.67260128  0.23319399  0.10097968    -0.27000
C1745       C  0.66577824  0.24295731  0.10565967    -0.03100
C1746       C  0.66031862  0.24940529  0.09559807     0.09100
C1747       C  0.66407973  0.24273763  0.08493531     0.02900
H1748       H  0.66671815  0.24648416  0.11527882     0.10500
H1749       H  0.66379885  0.24631695  0.07533015     0.09600
N1750       N  0.70225421  0.21263446  0.11637864    -0.34200
N1751       N  0.71280431  0.21016626  0.10993999    -0.26400
C1752       C  0.72079916  0.20371820  0.11765013    -0.01600
C1753       C  0.71489105  0.20203761  0.12930911     0.07000
C1754       C  0.70323775  0.20784899  0.12813299     0.05100
H1755       H  0.73030896  0.20077245  0.11508128     0.10200
H1756       H  0.69610019  0.20890471  0.13544674     0.09000
N1757       N  0.73292575  0.28474691  0.06516712    -0.25400
N1758       N  0.72214897  0.28281003  0.05892678    -0.33200
C1759       C  0.72478226  0.27795168  0.04737127     0.03000
C1760       C  0.73780820  0.27677248  0.04627379     0.09000
C1761       C  0.74269610  0.28118017  0.05767722    -0.04100
H1762       H  0.71772598  0.27555786  0.04026914     0.09700
H1763       H  0.75262485  0.28188548  0.06028738     0.10900
Cu1764     Cu  0.70423364  0.28666779  0.06635591     0.44200
Cu1765     Cu  0.73385625  0.29244756  0.08356298     0.42000
Cu1766     Cu  0.70353267  0.30349869  0.09572328     0.43900
N1767       N  0.68779721  0.28896481  0.07706550    -0.32800
N1768       N  0.68757008  0.29521346  0.08795664    -0.27000
C1769       C  0.67700445  0.29203031  0.09437536    -0.03100
C1770       C  0.67019311  0.28341340  0.08715906     0.09100
C1771       C  0.67728971  0.28175745  0.07622890     0.02900
H1772       H  0.67551096  0.29416598  0.10431682     0.10500
H1773       H  0.67601213  0.27428253  0.06925542     0.09600
N1774       N  0.72044379  0.30547867  0.10540818    -0.34200
N1775       N  0.73150745  0.30099217  0.10144844    -0.26400
C1776       C  0.74005740  0.30232334  0.11093722    -0.01600
C1777       C  0.73399090  0.30794690  0.12119219     0.07000
C1778       C  0.72161792  0.30976139  0.11737317     0.05100
H1779       H  0.74977877  0.29899316  0.11057248     0.10200
H1780       H  0.71383461  0.31327009  0.12310422     0.09000
N1781       N  0.43435376  0.29588580  0.72910717    -0.25400
N1782       N  0.43937795  0.29209562  0.71822155    -0.33200
C1783       C  0.45145873  0.28852513  0.72015353     0.03000
C1784       C  0.45425023  0.29013044  0.73281309     0.09000
C1785       C  0.44328373  0.29492914  0.73828197    -0.04100
H1786       H  0.45778522  0.28508250  0.71281504     0.09700
H1787       H  0.44191118  0.29759151  0.74811224     0.10900
Cu1788     Cu  0.42983015  0.29080965  0.70113214     0.44200
Cu1789     Cu  0.41538956  0.30165625  0.73066291     0.42000
Cu1790     Cu  0.39691651  0.29498760  0.70172212     0.43900
N1791       N  0.41825352  0.28354536  0.68706370    -0.32800
N1792       N  0.40576758  0.28447525  0.68765472    -0.27000
C1793       C  0.40057331  0.27486466  0.68098169    -0.03100
C1794       C  0.41026387  0.26746835  0.67602383     0.09100
C1795       C  0.42132029  0.27346240  0.67987284     0.02900
H1796       H  0.39071961  0.27203902  0.68185242     0.10500
H1797       H  0.43068378  0.26919902  0.67991093     0.09600
N1798       N  0.38950803  0.30309750  0.71804900    -0.34200
N1799       N  0.39595626  0.30542422  0.72861617    -0.26400
C1800       C  0.38780509  0.30981492  0.73749323    -0.01600
C1801       C  0.37577832  0.31025724  0.73216327     0.07000
C1802       C  0.37719760  0.30591985  0.71990588     0.05100
H1803       H  0.39037958  0.31213216  0.74717423     0.10200
H1804       H  0.36975147  0.30448331  0.71294868     0.09000
N1805       N  0.43539950  0.23487235  0.75078597    -0.25400
N1806       N  0.44120184  0.23571646  0.73968188    -0.33200
C1807       C  0.45304263  0.24021430  0.74140561     0.03000
C1808       C  0.45487673  0.24231256  0.75417753     0.09000
C1809       C  0.44355181  0.23880816  0.75991096    -0.04100
H1810       H  0.45998515  0.24134937  0.73393071     0.09700
H1811       H  0.44159153  0.23858067  0.76998038     0.10900
Cu1812     Cu  0.43340152  0.23023854  0.72249711     0.44200
Cu1813     Cu  0.41706128  0.22714758  0.75284976     0.42000
Cu1814     Cu  0.40267227  0.21721346  0.72258393     0.43900
N1815       N  0.42294038  0.22782586  0.70606891    -0.32800
N1816       N  0.41118305  0.22346872  0.70611671    -0.27000
C1817       C  0.40547266  0.22666529  0.69515676    -0.03100
C1818       C  0.41411677  0.23326932  0.68783053     0.09100
C1819       C  0.42509188  0.23373612  0.69504170     0.02900
H1820       H  0.39533208  0.22600044  0.69353055     0.10500
H1821       H  0.43319458  0.23983851  0.69337174     0.09600
N1822       N  0.39493053  0.21353546  0.74018972    -0.34200
N1823       N  0.39966391  0.21737982  0.75121433    -0.26400
C1824       C  0.39150879  0.21394885  0.76048756    -0.01600
C1825       C  0.38137553  0.20756219  0.75493420     0.07000
C1826       C  0.38382998  0.20756592  0.74212434     0.05100
H1827       H  0.39271415  0.21619947  0.77044422     0.10200
H1828       H  0.37774718  0.20391818  0.73465896     0.09000
N1829       N  0.50085717  0.28120633  0.74115511    -0.01600
C1830       C  0.51138514  0.28456588  0.73463738     0.01000
C1831       C  0.50869541  0.29426559  0.72631989    -0.21900
C1832       C  0.49596966  0.29689269  0.72765703    -0.22100
C1833       C  0.49141613  0.28875757  0.73680912     0.00900
H1834       H  0.51526735  0.29889410  0.71994517     0.14700
H1835       H  0.49055757  0.30377260  0.72230849     0.14700
N1836       N  0.49947056  0.25448444  0.76821949    -0.01600
C1837       C  0.48966378  0.24663345  0.77092296     0.01000
C1838       C  0.49310848  0.23828832  0.78037593    -0.21900
C1839       C  0.50549685  0.24120076  0.78364578    -0.22100
C1840       C  0.50914693  0.25117704  0.77602351     0.00900
H1841       H  0.48725693  0.23093326  0.78448625     0.14700
H1842       H  0.51114584  0.23664496  0.79089915     0.14700
N1843       N  0.56771511  0.28807575  0.72710492    -0.25400
N1844       N  0.56238949  0.29917558  0.72958549    -0.33200
C1845       C  0.55038190  0.29741148  0.73332459     0.03000
C1846       C  0.54789589  0.28463005  0.73320657     0.09000
C1847       C  0.55900214  0.27885155  0.72908710    -0.04100
H1848       H  0.54389526  0.30495872  0.73591952     0.09700
H1849       H  0.56059915  0.26882032  0.72754759     0.10900
Cu1850     Cu  0.57142790  0.31644216  0.72959299     0.44200
Cu1851     Cu  0.58667301  0.28692548  0.72142549     0.42000
Cu1852     Cu  0.60425736  0.31622217  0.73049841     0.43900
N1853       N  0.58134154  0.33044311  0.73888199    -0.32800
N1854       N  0.59378442  0.32983618  0.74024904    -0.27000
C1855       C  0.59716587  0.33693986  0.75036545    -0.03100
C1856       C  0.58628361  0.34229146  0.75552898     0.09100
C1857       C  0.57646952  0.33797202  0.74795086     0.02900
H1858       H  0.60645949  0.33661912  0.75477001     0.10500
H1859       H  0.56645660  0.33829079  0.75029386     0.09600
N1860       N  0.61147354  0.30160199  0.71929618    -0.34200
N1861       N  0.60532079  0.29107952  0.71606809    -0.26400
C1862       C  0.61303724  0.28382119  0.70885446    -0.01600
C1863       C  0.62445151  0.29014475  0.70744787     0.07000
C1864       C  0.62318314  0.30129745  0.71421030     0.05100
H1865       H  0.61058527  0.27455285  0.70511811     0.10200
H1866       H  0.63033644  0.30856471  0.71557204     0.09000
N1867       N  0.56201274  0.27436388  0.79044820    -0.25400
N1868       N  0.55488110  0.28469060  0.79133249    -0.33200
C1869       C  0.54303714  0.28205306  0.78729838     0.03000
C1870       C  0.54257472  0.26949377  0.78368232     0.09000
C1871       C  0.55472095  0.26481980  0.78583197    -0.04100
H1872       H  0.53529423  0.28880655  0.78711209     0.09700
H1873       H  0.55796763  0.25519297  0.78430433     0.10900
Cu1874     Cu  0.56117772  0.30230816  0.79739551     0.44200
Cu1875     Cu  0.58136609  0.27397916  0.79581284     0.42000
Cu1876     Cu  0.59250945  0.30445691  0.80831961     0.43900
N1877       N  0.57047970  0.31950928  0.79906884    -0.32800
N1878       N  0.58232643  0.32029546  0.80311104    -0.27000
C1879       C  0.58755569  0.33102217  0.79867819    -0.03100
C1880       C  0.57865822  0.33721842  0.79130677     0.09100
C1881       C  0.56785538  0.32975866  0.79202664     0.02900
H1882       H  0.59770726  0.33270394  0.79850460     0.10500
H1883       H  0.55977999  0.33027608  0.78567115     0.09600
N1884       N  0.60360052  0.28834244  0.80743750    -0.34200
N1885       N  0.60000480  0.27730556  0.80253809    -0.26400
C1886       C  0.61019113  0.26947129  0.80242101    -0.01600
C1887       C  0.62050565  0.27598481  0.80750427     0.07000
C1888       C  0.61598074  0.28785958  0.81052086     0.05100
H1889       H  0.61016280  0.25989810  0.79865929     0.10200
H1890       H  0.62139814  0.29577032  0.81427325     0.09000
N1891       N  0.93419368  0.22350195  0.72541919    -0.25400
N1892       N  0.93923457  0.21199280  0.72539677    -0.33200
C1893       C  0.95110350  0.21251466  0.73002863     0.03000
C1894       C  0.95386755  0.22489429  0.73315425     0.09000
C1895       C  0.94298711  0.23172894  0.73006863    -0.04100
H1896       H  0.95725103  0.20436963  0.73118890     0.09700
H1897       H  0.94156757  0.24184450  0.73113658     0.10900
Cu1898     Cu  0.92980298  0.19539453  0.72094805     0.44200
Cu1899     Cu  0.91531863  0.22663332  0.71918734     0.42000
Cu1900     Cu  0.89708582  0.19673996  0.71737466     0.43900
N1901       N  0.91841934  0.18028192  0.72571848    -0.32800
N1902       N  0.90592213  0.18114836  0.72535982    -0.27000
C1903       C  0.90098691  0.17317173  0.73397727    -0.03100
C1904       C  0.91088299  0.16703305  0.74008493     0.09100
C1905       C  0.92175729  0.17163007  0.73439050     0.02900
H1906       H  0.89125355  0.17367628  0.73725806     0.10500
H1907       H  0.93126605  0.17095011  0.73827528     0.09600
N1908       N  0.89034055  0.21412942  0.71121877    -0.34200
N1909       N  0.89653962  0.22506155  0.71205997    -0.26400
C1910       C  0.88877899  0.23436150  0.70781931    -0.01600
C1911       C  0.87732144  0.22892407  0.70409794     0.07000
C1912       C  0.87866640  0.21615459  0.70643343     0.05100
H1913       H  0.89118557  0.24434272  0.70772088     0.10200
H1914       H  0.87151635  0.20887128  0.70514298     0.09000
N1915       N  0.93703126  0.23291048  0.79080181    -0.25400
N1916       N  0.94312235  0.22233900  0.78773086    -0.33200
C1917       C  0.95505413  0.22521012  0.78411174     0.03000
C1918       C  0.95660514  0.23819203  0.78493375     0.09000
C1919       C  0.94503391  0.24280555  0.78923763    -0.04100
H1920       H  0.96212740  0.21831422  0.78125790     0.09700
H1921       H  0.94267319  0.25259660  0.79127894     0.10900
Cu1922     Cu  0.93503280  0.20437787  0.78837846     0.44200
Cu1923     Cu  0.91809318  0.23314404  0.79724120     0.42000
Cu1924     Cu  0.90304137  0.20199366  0.79942773     0.43900
N1925       N  0.92414608  0.18806868  0.78636223    -0.32800
N1926       N  0.91224099  0.18724479  0.79023911    -0.27000
C1927       C  0.90661457  0.17736345  0.78435010    -0.03100
C1928       C  0.91539471  0.17167689  0.77640202     0.09100
C1929       C  0.92641331  0.17866800  0.77801389     0.02900
H1930       H  0.89644825  0.17577458  0.78426127     0.10500
H1931       H  0.93469698  0.17832484  0.77193962     0.09600
N1932       N  0.89415782  0.21877859  0.80453512    -0.34200
N1933       N  0.89933032  0.23018674  0.80349740    -0.26400
C1934       C  0.89046764  0.23895062  0.80657264    -0.01600
C1935       C  0.87931936  0.23268773  0.80970256     0.07000
C1936       C  0.88199302  0.21996278  0.80826827     0.05100
H1937       H  0.89192317  0.24910519  0.80620353     0.10200
H1938       H  0.87544168  0.21212820  0.80938410     0.09000
N1939       N  0.00042116  0.22998495  0.74708671    -0.01600
C1940       C  0.01067312  0.22283104  0.74406183     0.01000
C1941       C  0.00726624  0.21309652  0.73593912    -0.21900
C1942       C  0.99438496  0.21425538  0.73393762    -0.22100
C1943       C  0.99041481  0.22469936  0.74085329     0.00900
H1944       H  0.01351495  0.20614280  0.73164341     0.14700
H1945       H  0.98857293  0.20825397  0.72790372     0.14700
N1946       N  0.00002585  0.25672138  0.77440686    -0.01600
C1947       C  0.98998505  0.25816356  0.78233595     0.01000
C1948       C  0.99278789  0.26699976  0.79163770    -0.21900
C1949       C  0.00504117  0.27110283  0.78936985    -0.22100
C1950       C  0.00932297  0.26460648  0.77878076     0.00900
H1951       H  0.98668932  0.26998128  0.79935862     0.14700
H1952       H  0.01030128  0.27799259  0.79493816     0.14700
N1953       N  0.06839607  0.22555046  0.73895031    -0.25400
N1954       N  0.06378910  0.23249273  0.72959361    -0.33200
C1955       C  0.05149728  0.23502407  0.73178161     0.03000
C1956       C  0.04804826  0.22934520  0.74296708     0.09000
C1957       C  0.05892316  0.22329783  0.74729140    -0.04100
H1958       H  0.04529767  0.23990692  0.72522154     0.09700
H1959       H  0.05971653  0.21718413  0.75546449     0.10900
Cu1960     Cu  0.07345458  0.23728998  0.71333087     0.44200
Cu1961     Cu  0.08723520  0.21905115  0.73901427     0.42000
Cu1962     Cu  0.10590059  0.23199265  0.71215131     0.43900
N1963       N  0.08453753  0.24494092  0.69924115    -0.32800
N1964       N  0.09700548  0.24379807  0.69933653    -0.27000
C1965       C  0.10209050  0.25333460  0.69259340    -0.03100
C1966       C  0.09230125  0.26083132  0.68801700     0.09100
C1967       C  0.08132309  0.25500867  0.69223279     0.02900
H1968       H  0.11204047  0.25593070  0.69300293     0.10500
H1969       H  0.07200209  0.25935278  0.69258173     0.09600
N1970       N  0.11291962  0.21993246  0.72587028    -0.34200
N1971       N  0.10649494  0.21519452  0.73556214    -0.26400
C1972       C  0.11452770  0.20814739  0.74262311    -0.01600
C1973       C  0.12640273  0.20849590  0.73697894     0.07000
C1974       C  0.12504940  0.21605710  0.72648929     0.05100
H1975       H  0.11199549  0.20344615  0.75136102     0.10200
H1976       H  0.13244127  0.21888404  0.71995558     0.09000
N1977       N  0.06376792  0.28416191  0.76458295    -0.25400
N1978       N  0.05898649  0.28306546  0.75298447    -0.33200
C1979       C  0.04756533  0.27734857  0.75343021     0.03000
C1980       C  0.04474947  0.27465908  0.76585824     0.09000
C1981       C  0.05518868  0.27914032  0.77276185    -0.04100
H1982       H  0.04155776  0.27562191  0.74525709     0.09700
H1983       H  0.05630479  0.27901754  0.78296483     0.10900
Cu1984     Cu  0.06728419  0.28972895  0.73658181     0.44200
Cu1985     Cu  0.08183599  0.29298872  0.76815472     0.42000
Cu1986     Cu  0.09600031  0.30574556  0.73879803     0.43900
N1987       N  0.07732464  0.29499661  0.72064944    -0.32800
N1988       N  0.08844231  0.30071239  0.72144936    -0.27000
C1989       C  0.09445778  0.29966791  0.71023285    -0.03100
C1990       C  0.08664039  0.29308680  0.70192604     0.09100
C1991       C  0.07584340  0.29034788  0.70887169     0.02900
H1992       H  0.10444130  0.30173346  0.70887184     0.10500
H1993       H  0.06852931  0.28358572  0.70625555     0.09600
N1994       N  0.10419519  0.30743634  0.75649130    -0.34200
N1995       N  0.09981125  0.30260385  0.76721688    -0.26400
C1996       C  0.10880826  0.30454148  0.77629689    -0.01600
C1997       C  0.11909156  0.31091938  0.77088719     0.07000
C1998       C  0.11574671  0.31251896  0.75840361     0.05100
H1999       H  0.10812730  0.30119405  0.78595479     0.10200
H2000       H  0.12159401  0.31654022  0.75100267     0.09000
N2001       N  0.70606830  0.26551648  0.80045303    -0.34700
N2002       N  0.70417152  0.26621801  0.82771568    -0.55300
N2003       N  0.67657257  0.26914927  0.82591662    -0.34700
N2004       N  0.67844324  0.26747763  0.79849043    -0.55300
C2005       C  0.71792707  0.26167152  0.80360139     0.28900
C2006       C  0.70435120  0.26280981  0.78802740     0.28900
C2007       C  0.67791030  0.26642834  0.83839205     0.28900
C2008       C  0.66421235  0.26720446  0.82279917     0.28900
C2009       C  0.71696961  0.26669052  0.82663420     0.37500
C2010       C  0.70146331  0.26881403  0.83997049     0.37500
C2011       C  0.68156503  0.26905481  0.78616948     0.37500
C2012       C  0.66596881  0.27042360  0.79950566     0.37500
C2013       C  0.72383837  0.25650349  0.79301185    -0.20000
C2014       C  0.71529112  0.25729993  0.78315260    -0.20000
C2015       C  0.66619900  0.26295180  0.84332123    -0.20000
C2016       C  0.65755090  0.26349451  0.83349607    -0.20000
C2017       C  0.72243782  0.26969837  0.83822766    -0.21000
C2018       C  0.71261773  0.27102123  0.84669082    -0.21000
C2019       C  0.67098660  0.27287513  0.77930374    -0.21000
C2020       C  0.66110909  0.27372880  0.78774992    -0.21000
C2021       C  0.72379180  0.26340083  0.81557279    -0.16400
C2022       C  0.69352555  0.26608488  0.78082286    -0.16400
C2023       C  0.65872244  0.26925794  0.81070645    -0.16400
C2024       C  0.68932427  0.26742327  0.84549496    -0.16400
H2025       H  0.73338590  0.25272283  0.79239625     0.16500
H2026       H  0.71699742  0.25426938  0.77347816     0.16500
H2027       H  0.66408196  0.26034706  0.85300826     0.16500
H2028       H  0.64750629  0.26136097  0.83414782     0.16500
H2029       H  0.73245962  0.27053750  0.84042733     0.14800
H2030       H  0.71359764  0.27300752  0.85673089     0.14800
H2031       H  0.67035653  0.27460402  0.76921069     0.14800
H2032       H  0.65141838  0.27630647  0.78545709     0.14800
H2033       H  0.70006856  0.27107147  0.80598299     0.28100
H2034       H  0.68344089  0.27326003  0.82017715     0.28100
N2035       N  0.79655549  0.25643005  0.70942973    -0.34700
N2036       N  0.82316400  0.24840207  0.71023942    -0.55300
N2037       N  0.82419109  0.24841533  0.68235771    -0.34700
N2038       N  0.79712726  0.25467766  0.68164256    -0.55300
C2039       C  0.79774818  0.25410666  0.72200495     0.28900
C2040       C  0.78397564  0.25741134  0.70682829     0.28900
C2041       C  0.83591563  0.24372955  0.68492683     0.28900
C2042       C  0.82198229  0.24693488  0.66973808     0.28900
C2043       C  0.82126504  0.25034079  0.72281828     0.37500
C2044       C  0.83578531  0.24635964  0.70868097     0.37500
C2045       C  0.78529211  0.25944966  0.68321734     0.37500
C2046       C  0.79964664  0.25526004  0.66907143     0.37500
C2047       C  0.78577018  0.25389923  0.72750500    -0.20000
C2048       C  0.77709668  0.25598471  0.71794489    -0.20000
C2049       C  0.84137687  0.23949540  0.67369379    -0.20000
C2050       C  0.83261114  0.24151608  0.66414332    -0.20000
C2051       C  0.83271905  0.24941288  0.72926975    -0.21000
C2052       C  0.84186367  0.24685154  0.72037220    -0.21000
C2053       C  0.78025255  0.26300113  0.67161937    -0.21000
C2054       C  0.78929636  0.26035501  0.66268635    -0.21000
C2055       C  0.80931943  0.25240290  0.72874137    -0.16400
C2056       C  0.77851712  0.25989569  0.69478219    -0.16400
C2057       C  0.81084305  0.25075245  0.66308806    -0.16400
C2058       C  0.84193629  0.24343274  0.69703783    -0.16400
H2059       H  0.78348671  0.25231973  0.73737994     0.16500
H2060       H  0.76687423  0.25636114  0.71905998     0.16500
H2061       H  0.85072200  0.23537258  0.67248309     0.16500
H2062       H  0.83393393  0.23926672  0.65420131     0.16500
H2063       H  0.83435716  0.25042771  0.73936317     0.14800
H2064       H  0.85187117  0.24548850  0.72233415     0.14800
H2065       H  0.77095992  0.26698990  0.66974749     0.14800
H2066       H  0.78827405  0.26197488  0.65261257     0.14800
H2067       H  0.80391061  0.25839140  0.70321490     0.28100
H2068       H  0.81846651  0.25327960  0.68869363     0.28100
N2069       N  0.70636377  0.26935032  0.70681888    -0.34700
N2070       N  0.67893768  0.27344699  0.70880244    -0.55300
N2071       N  0.67729793  0.27660313  0.68134352    -0.34700
N2072       N  0.70510577  0.27382658  0.67959591    -0.55300
C2073       C  0.70511071  0.26943910  0.71958403     0.28900
C2074       C  0.71894697  0.26972572  0.70421891     0.28900
C2075       C  0.66523077  0.27977811  0.68454551     0.28900
C2076       C  0.67895304  0.27950495  0.66896979     0.28900
C2077       C  0.68135001  0.27049168  0.72102654     0.37500
C2078       C  0.66620212  0.27476626  0.70777491     0.37500
C2079       C  0.71771678  0.27137358  0.68051498     0.37500
C2080       C  0.70243294  0.27507791  0.66710841     0.37500
C2081       C  0.71704555  0.26953532  0.72517765    -0.20000
C2082       C  0.72575149  0.26965416  0.71552603    -0.20000
C2083       C  0.65899128  0.28438537  0.67392587    -0.20000
C2084       C  0.66761355  0.28418092  0.66410983    -0.20000
C2085       C  0.67009193  0.26999062  0.72782713    -0.21000
C2086       C  0.66051610  0.27270683  0.71946122    -0.21000
C2087       C  0.72314538  0.27130448  0.66855050    -0.21000
C2088       C  0.71350502  0.27364456  0.66007872    -0.21000
C2089       C  0.69356998  0.26909164  0.72643262    -0.16400
C2090       C  0.72455560  0.26968502  0.69199382    -0.16400
C2091       C  0.69034580  0.27807987  0.66189783    -0.16400
C2092       C  0.65961925  0.27853218  0.69670582    -0.16400
H2093       H  0.71930115  0.26944286  0.73519804     0.16500
H2094       H  0.73595315  0.26962006  0.71680918     0.16500
H2095       H  0.64924139  0.28760634  0.67330422     0.16500
H2096       H  0.66575495  0.28726633  0.65450830     0.16500
H2097       H  0.66889443  0.26808675  0.73783468     0.14800
H2098       H  0.65051055  0.27322787  0.72178510     0.14800
H2099       H  0.73304469  0.26984482  0.66616539     0.14800
H2100       H  0.71457452  0.27430876  0.64989347     0.14800
H2101       H  0.69912951  0.26791388  0.70033533     0.28100
H2102       H  0.68378797  0.27194688  0.68700385     0.28100
N2103       N  0.79661690  0.25394569  0.80311929    -0.34700
N2104       N  0.79702311  0.25064665  0.83071034    -0.55300
N2105       N  0.82464733  0.24777581  0.82993511    -0.34700
N2106       N  0.82387819  0.24953428  0.80217846    -0.55300
C2107       C  0.78402388  0.25295398  0.80554556     0.28900
C2108       C  0.79818839  0.25220354  0.79046630     0.28900
C2109       C  0.82244857  0.24499607  0.84229697     0.28900
C2110       C  0.83658989  0.24384856  0.82706873     0.28900
C2111       C  0.78469488  0.25405865  0.82924175     0.37500
C2112       C  0.79944771  0.25100759  0.84333370     0.37500
C2113       C  0.82189360  0.25226623  0.78980023     0.37500
C2114       C  0.83661602  0.24890165  0.80383698     0.37500
C2115       C  0.77752515  0.25070272  0.79428520    -0.20000
C2116       C  0.78644489  0.25025391  0.78478799    -0.20000
C2117       C  0.83324986  0.23948236  0.84743104    -0.20000
C2118       C  0.84213574  0.23872710  0.83784340    -0.20000
C2119       C  0.77924757  0.25642930  0.84098417    -0.21000
C2120       C  0.78853800  0.25442879  0.84988689    -0.21000
C2121       C  0.83342006  0.25340823  0.78356365    -0.21000
C2122       C  0.84273540  0.25125423  0.79242900    -0.21000
C2123       C  0.77810306  0.25461550  0.81751534    -0.16400
C2124       C  0.80985734  0.25266762  0.78379682    -0.16400
C2125       C  0.84279514  0.24515847  0.81516582    -0.16400
C2126       C  0.81111575  0.24764744  0.84915390    -0.16400
H2127       H  0.76738154  0.24948605  0.79302232     0.16500
H2128       H  0.78448460  0.24864806  0.77482349     0.16500
H2129       H  0.83459158  0.23629577  0.85708354     0.16500
H2130       H  0.85163359  0.23488425  0.83873929     0.16500
H2131       H  0.76957362  0.25928886  0.84297990     0.14800
H2132       H  0.78736768  0.25539575  0.86004576     0.14800
H2133       H  0.83495637  0.25531976  0.77360346     0.14800
H2134       H  0.85286169  0.25119878  0.79061689     0.14800
H2135       H  0.80351599  0.25695332  0.80950889     0.28100
H2136       H  0.81875961  0.25307792  0.82412415     0.28100
C2137       C  0.75996131  0.27474160  0.69649362    -0.11400
C2138       C  0.76466139  0.26252804  0.69400252     0.10700
C2139       C  0.75628116  0.25297567  0.68989844    -0.11400
C2140       C  0.74328920  0.25549325  0.68867378    -0.11400
C2141       C  0.73852844  0.26762951  0.69140893     0.10700
C2142       C  0.74697586  0.27730399  0.69512183    -0.11400
H2143       H  0.76634878  0.28224901  0.69948792     0.14700
H2144       H  0.75981862  0.24355788  0.68774571     0.14700
H2145       H  0.73688910  0.24791368  0.68589421     0.14700
H2146       H  0.74341934  0.28668780  0.69738881     0.14700
C2147       C  0.80649306  0.26367073  0.74966540    -0.11400
C2148       C  0.80888588  0.25239623  0.74290015     0.10700
C2149       C  0.81132915  0.24119766  0.74964445    -0.11400
C2150       C  0.81163443  0.24132101  0.76291942    -0.11400
C2151       C  0.80942637  0.25262052  0.76966935     0.10700
C2152       C  0.80673449  0.26377685  0.76296520    -0.11400
H2153       H  0.80460687  0.27239927  0.74462912     0.14700
H2154       H  0.81316288  0.23240847  0.74459794     0.14700
H2155       H  0.81363480  0.23261733  0.76795628     0.14700
H2156       H  0.80495414  0.27256183  0.76803684     0.14700
C2157       C  0.69320745  0.25550793  0.75953017    -0.11400
C2158       C  0.69471641  0.26654531  0.76687680     0.10700
C2159       C  0.69636707  0.27828920  0.76092657    -0.11400
C2160       C  0.69615170  0.27906121  0.74773228    -0.11400
C2161       C  0.69438647  0.26807841  0.74038417     0.10700
C2162       C  0.69309996  0.25626710  0.74630160    -0.11400
H2163       H  0.69185682  0.24640564  0.76405285     0.14700
H2164       H  0.69745251  0.28687196  0.76652845     0.14700
H2165       H  0.69716227  0.28821865  0.74322850     0.14700
H2166       H  0.69175037  0.24773671  0.74067994     0.14700
C2167       C  0.74617916  0.27004188  0.81113531    -0.11400
C2168       C  0.73772941  0.26134676  0.81657853     0.10700
C2169       C  0.74255049  0.25055228  0.82267062    -0.11400
C2170       C  0.75567419  0.24838394  0.82312753    -0.11400
C2171       C  0.76414458  0.25706324  0.81761762     0.10700
C2172       C  0.75928417  0.26794601  0.81169972    -0.11400
H2173       H  0.74259833  0.27839971  0.80638681     0.14700
H2174       H  0.73613061  0.24373217  0.82687599     0.14700
H2175       H  0.75923275  0.23988966  0.82764428     0.14700
H2176       H  0.76566592  0.27472586  0.80737177     0.14700
C2177       C  0.09297379  0.27439151  0.68759917    -0.11400
C2178       C  0.09106806  0.28470949  0.69213582    -0.12900
C2179       C  0.02202913  0.26642889  0.77358206    -0.11400
C2180       C  0.03265244  0.26965212  0.77033152    -0.12900
C2181       C  0.02373527  0.22575502  0.74710009    -0.11400
C2182       C  0.03507364  0.22750520  0.74685320    -0.12900
C2183       C  0.00032375  0.24007924  0.75590314    -0.11400
C2184       C  0.00053409  0.24810601  0.76415042    -0.12900
C2185       C  0.86698704  0.23806272  0.81249528    -0.11400
C2186       C  0.85618045  0.24165094  0.81421159    -0.12900
C2187       C  0.96825437  0.24521902  0.78284620    -0.11400
C2188       C  0.97819532  0.25097684  0.78191749    -0.12900
C2189       C  0.86568026  0.23509263  0.70013729    -0.11400
C2190       C  0.85515142  0.23921098  0.69787489    -0.12900
C2191       C  0.96609667  0.22905700  0.73795746    -0.11400
C2192       C  0.97732349  0.22898736  0.74059736    -0.12900
C2193       C  0.91072858  0.16408403  0.75335968    -0.11400
C2194       C  0.91223804  0.16557239  0.76460025    -0.12900
C2195       C  0.63361084  0.27202895  0.80859956    -0.11400
C2196       C  0.64493219  0.27023463  0.80969034    -0.12900
C2197       C  0.63594053  0.28553590  0.70164528    -0.11400
C2198       C  0.64638409  0.28211992  0.69833935    -0.12900
C2199       C  0.58457748  0.34503549  0.76877033    -0.11400
C2200       C  0.58205252  0.34359093  0.77980833    -0.12900
C2201       C  0.53131875  0.26272473  0.77958012    -0.11400
C2202       C  0.52130168  0.25757021  0.77716051    -0.12900
C2203       C  0.52404589  0.27962311  0.73617924    -0.11400
C2204       C  0.53547690  0.27946312  0.73544107    -0.12900
C2205       C  0.50005110  0.27192241  0.75066508    -0.11400
C2206       C  0.49968959  0.26393797  0.75883833    -0.12900
C2207       C  0.46687940  0.24525550  0.76017882    -0.11400
C2208       C  0.47730491  0.24661070  0.76486317    -0.12900
C2209       C  0.46667227  0.28842605  0.73827254    -0.11400
C2210       C  0.47804930  0.28773176  0.73956378    -0.12900
C2211       C  0.40959106  0.25388700  0.67540839    -0.11400
C2212       C  0.41083079  0.24319615  0.67917350    -0.12900
C2213       C  0.65919029  0.26295285  0.09512252    -0.11400
C2214       C  0.66235564  0.27354013  0.09227430    -0.12900
C2215       C  0.74485981  0.27256316  0.03525168    -0.11400
C2216       C  0.75106820  0.26965892  0.02600821    -0.12900
C2217       C  0.72230504  0.23466018  0.02848015    -0.11400
C2218       C  0.72201792  0.23292246  0.03986284    -0.12900
C2219       C  0.73576526  0.24572891  0.00454170    -0.11400
C2220       C  0.74557556  0.25173350  0.00433341    -0.12900
C2221       C  0.80955795  0.24418489  0.87419072    -0.11400
C2222       C  0.81105785  0.24614062  0.86294885    -0.12900
C2223       C  0.77019041  0.25009817  0.97421155    -0.11400
C2224       C  0.76748708  0.25453956  0.98453048    -0.12900
C2225       C  0.69093065  0.26091999  0.86955788    -0.11400
C2226       C  0.68905703  0.26498228  0.85903367    -0.12900
C2227       C  0.71814012  0.24018354  0.97038065    -0.11400
C2228       C  0.71829342  0.24013510  0.98186511    -0.12900
C2229       C  0.74076327  0.18004255  0.90433061    -0.11400
C2230       C  0.75175821  0.17963801  0.90746431    -0.12900
C2231       C  0.35876323  0.20104115  0.76353110    -0.11400
C2232       C  0.36961351  0.20345948  0.76061396    -0.12900
C2233       C  0.13163490  0.31384882  0.77597388    -0.11400
C2234       C  0.14282413  0.31623936  0.77777982    -0.12900
C2235       C  0.24706265  0.20543532  0.75569115    -0.11400
C2236       C  0.23918275  0.20004558  0.76490668     0.10700
C2237       C  0.24460862  0.19338751  0.77505932    -0.11400
C2238       C  0.25784270  0.19220626  0.77600062    -0.11400
C2239       C  0.26571608  0.19752497  0.76669098     0.10700
C2240       C  0.26022138  0.20415115  0.75655209    -0.11400
H2241       H  0.24297822  0.21032708  0.74764630     0.14700
H2242       H  0.23859039  0.18894540  0.78208122     0.14700
H2243       H  0.26194895  0.18719147  0.78395178     0.14700
H2244       H  0.26617304  0.20837403  0.74933436     0.14700
C2245       C  0.20261734  0.25289542  0.77005439    -0.11400
C2246       C  0.19151447  0.24545469  0.76907544     0.10700
C2247       C  0.17981440  0.25165599  0.77112633    -0.11400
C2248       C  0.17913576  0.26491111  0.77192508    -0.11400
C2249       C  0.19023428  0.27237668  0.77278057     0.10700
C2250       C  0.20196406  0.26589660  0.77282962    -0.11400
H2251       H  0.21190163  0.24882025  0.76840894     0.14700
H2252       H  0.17100870  0.24635263  0.77131444     0.14700
H2253       H  0.16982391  0.26921151  0.77152095     0.14700
H2254       H  0.21079051  0.27100764  0.77418970     0.14700
C2255       C  0.14915354  0.20134530  0.74455750    -0.11400
C2256       C  0.13830451  0.20365151  0.74161684    -0.12900
C2257       C  0.25552896  0.32049882  0.77081584    -0.11400
C2258       C  0.26098856  0.31875946  0.75878711     0.10700
C2259       C  0.25297371  0.31775992  0.74814314    -0.11400
C2260       C  0.23971888  0.31841479  0.74951277    -0.11400
C2261       C  0.23424328  0.31987668  0.76158398     0.10700
C2262       C  0.24228059  0.32098768  0.77220213    -0.11400
H2263       H  0.26153886  0.32144088  0.77911943     0.14700
H2264       H  0.25701128  0.31656264  0.73876717     0.14700
H2265       H  0.23372770  0.31772424  0.74117434     0.14700
H2266       H  0.23826240  0.32221862  0.78158325     0.14700
C2267       C  0.31467585  0.26669265  0.77141553    -0.11400
C2268       C  0.30751937  0.27154884  0.76129592     0.10700
C2269       C  0.30118387  0.26318485  0.75305588    -0.11400
C2270       C  0.30223219  0.25009164  0.75473222    -0.11400
C2271       C  0.30960453  0.24520120  0.76468898     0.10700
C2272       C  0.31566463  0.25358708  0.77314053    -0.11400
H2273       H  0.31967709  0.27306036  0.77779785     0.14700
H2274       H  0.29571775  0.26680774  0.74515055     0.14700
H2275       H  0.29745768  0.24374063  0.74815954     0.14700
H2276       H  0.32129512  0.24996237  0.78092802     0.14700
C2277       C  0.36385235  0.31321574  0.73820293    -0.11400
C2278       C  0.35316720  0.31480084  0.74211244    -0.12900
C2279       C  0.18774154  0.37678577  0.76403358    -0.11400
C2280       C  0.18676594  0.36568778  0.76689135    -0.12900
C2281       C  0.30801041  0.36265438  0.74397845    -0.11400
C2282       C  0.30646600  0.37356221  0.74089383    -0.12900
C2283       C  0.24052426  0.41846748  0.68324383    -0.11400
C2284       C  0.22949197  0.41936426  0.68615959    -0.12900
C2285       C  0.26498341  0.48403919  0.74517580    -0.11400
C2286       C  0.26685536  0.47269807  0.74519685    -0.12900
C2287       C  0.21829227  0.49069703  0.76355349    -0.11400
C2288       C  0.21597866  0.47996334  0.76009923    -0.12900
C2289       C  0.23986638  0.50970410  0.75848569    -0.11400
C2290       C  0.24920831  0.50831051  0.75191786    -0.12900
C2291       C  0.23868102  0.54426244  0.77393474    -0.11400
C2292       C  0.23293913  0.53451675  0.77188386    -0.12900
C2293       C  0.26299453  0.54172747  0.73662644    -0.11400
C2294       C  0.26178034  0.53032434  0.73742517    -0.12900
C2295       C  0.32816534  0.59366860  0.76914309    -0.11400
C2296       C  0.32482996  0.59143772  0.77981764    -0.12900
C2297       C  0.26486430  0.65480050  0.70245034    -0.11400
C2298       C  0.26733594  0.64398130  0.70552166    -0.12900
C2299       C  0.26974274  0.69782307  0.76896831    -0.11400
C2300       C  0.25860422  0.70252275  0.77461026     0.10700
C2301       C  0.24905640  0.70771025  0.76693926    -0.11400
C2302       C  0.25041938  0.70779733  0.75374244    -0.11400
C2303       C  0.26136983  0.70273976  0.74802130     0.10700
C2304       C  0.27116194  0.69801456  0.75575684    -0.11400
H2305       H  0.27722024  0.69384510  0.77479052     0.14700
H2306       H  0.24043337  0.71140971  0.77116978     0.14700
H2307       H  0.24280763  0.71155640  0.74794473     0.14700
H2308       H  0.27973332  0.69419604  0.75152982     0.14700
C2309       C  0.27166928  0.75051134  0.82490877    -0.11400
C2310       C  0.25929486  0.74552174  0.82494339     0.10700
C2311       C  0.24886997  0.75382418  0.82465079    -0.11400
C2312       C  0.25080779  0.76695679  0.82412107    -0.11400
C2313       C  0.26319159  0.77191241  0.82365151     0.10700
C2314       C  0.27360211  0.76359909  0.82409649    -0.11400
H2315       H  0.27980647  0.74421999  0.82507571     0.14700
H2316       H  0.23926678  0.75011018  0.82461940     0.14700
H2317       H  0.24268170  0.77326083  0.82397038     0.14700
H2318       H  0.28321417  0.76728655  0.82391136     0.14700
C2319       C  0.24834365  0.65339904  0.81605799    -0.11400
C2320       C  0.24962211  0.64218283  0.81395018    -0.12900
C2321       C  0.27445844  0.76715478  0.70116894    -0.11400
C2322       C  0.26334155  0.77449163  0.70117691     0.10700
C2323       C  0.25145579  0.76847976  0.70043874    -0.11400
C2324       C  0.25066357  0.75525198  0.69992881    -0.11400
C2325       C  0.26175926  0.74788644  0.70001011     0.10700
C2326       C  0.27367115  0.75390963  0.70053167    -0.11400
H2327       H  0.28368847  0.77168792  0.70169939     0.14700
H2328       H  0.24280854  0.77405591  0.70040067     0.14700
H2329       H  0.24141691  0.75073422  0.69958674     0.14700
H2330       H  0.28231068  0.74832562  0.70066807     0.14700
C2331       C  0.27391059  0.81319313  0.75586425    -0.11400
C2332       C  0.26382086  0.81974916  0.75007880     0.10700
C2333       C  0.25469431  0.82567771  0.75784466    -0.11400
C2334       C  0.25574855  0.82522270  0.77109254    -0.11400
C2335       C  0.26585535  0.81869819  0.77682956     0.10700
C2336       C  0.27488776  0.81263037  0.76911291    -0.11400
H2337       H  0.28104539  0.80852877  0.75009463     0.14700
H2338       H  0.24675774  0.83066806  0.75363105     0.14700
H2339       H  0.24868927  0.82996039  0.77689461     0.14700
H2340       H  0.28276653  0.80758271  0.77336625     0.14700
C2341       C  0.31431678  0.15216237  0.76448411    -0.11400
C2342       C  0.31398260  0.14101573  0.76165810    -0.12900
C2343       C  0.20027813  0.14524049  0.73790458    -0.11400
C2344       C  0.19730629  0.15585930  0.74115647    -0.12900
C2345       C  0.26449585  0.10140138  0.67857705    -0.11400
C2346       C  0.27538731  0.10073167  0.68204035    -0.12900
C2347       C  0.23487727  0.03507148  0.74869325    -0.11400
C2348       C  0.23623514  0.04637082  0.74728966    -0.12900
C2349       C  0.28120574  0.04038312  0.76011970    -0.11400
C2350       C  0.27900535  0.03031749  0.76513947    -0.12900
C2351       C  0.25902107  0.00964039  0.76176372    -0.11400
C2352       C  0.24972258  0.01065919  0.75508429    -0.12900
C2353       C  0.27723659  0.87543648  0.82036491    -0.11400
C2354       C  0.27558043  0.86438268  0.82314781    -0.12900
C2355       C  0.26723579  0.97565588  0.78141011    -0.11400
C2356       C  0.26749621  0.98680157  0.77857169    -0.12900
C2357       C  0.25160069  0.87746821  0.70674033    -0.11400
C2358       C  0.25153891  0.86610416  0.70510039    -0.12900
C2359       C  0.24270073  0.97984787  0.73551499    -0.11400
C2360       C  0.23806918  0.98977724  0.73891601    -0.12900
C2361       C  0.32928182  0.93061404  0.75394903    -0.11400
C2362       C  0.32568178  0.93188432  0.74318506    -0.12900
C2363       C  0.27315806  0.67102028  0.09879568    -0.11400
C2364       C  0.26204836  0.67135715  0.10149493    -0.12900
C2365       C  0.27397298  0.74928964  0.04509531    -0.11400
C2366       C  0.27172782  0.75541343  0.03567830    -0.12900
C2367       C  0.22587424  0.73445104  0.04372450    -0.11400
C2368       C  0.22784381  0.73472161  0.03239288    -0.12900
C2369       C  0.24728969  0.74296792  0.01170917    -0.11400
C2370       C  0.25530498  0.75120451  0.01234080    -0.12900
C2371       C  0.27517512  0.81275849  0.88096905    -0.11400
C2372       C  0.27404852  0.81671005  0.87019254    -0.12900
C2373       C  0.26555781  0.77217306  0.98054896    -0.11400
C2374       C  0.26477389  0.77051859  0.99192480    -0.12900
C2375       C  0.25289473  0.69479175  0.87838662    -0.11400
C2376       C  0.25125375  0.69576502  0.86707408    -0.12900
C2377       C  0.24979771  0.72182714  0.98015247    -0.11400
C2378       C  0.24381832  0.72463544  0.98954565    -0.12900
C2379       C  0.32458068  0.71934341  0.92058907    -0.11400
C2380       C  0.32505646  0.73051746  0.91832575    -0.12900
C2381       C  0.25015376  0.81800372  0.64633118    -0.11400
C2382       C  0.25387447  0.82007091  0.65703870    -0.12900
C2383       C  0.25274514  0.70194063  0.64301489    -0.11400
C2384       C  0.25517869  0.70040082  0.65423528    -0.12900
C2385       C  0.18275151  0.75239931  0.59689557    -0.11400
C2386       C  0.18137244  0.76366255  0.59833707    -0.12900
C2387       C  0.24681398  0.78818194  0.53188258    -0.11400
C2388       C  0.24572591  0.78938107  0.54326482    -0.12900
C2389       C  0.26164140  0.73767064  0.52958891    -0.11400
C2390       C  0.25761683  0.73507013  0.54008775    -0.12900
C2391       C  0.25927695  0.75980019  0.51005155    -0.11400
C2392       C  0.25327770  0.76960435  0.50992372    -0.12900
C2393       C  0.24140059  0.78115087  0.48559721    -0.11400
C2394       C  0.23955767  0.78051029  0.47424572    -0.12900
C2395       C  0.28008487  0.75893379  0.47833317    -0.11400
C2396       C  0.27655420  0.75347526  0.48781116    -0.12900
C2397       C  0.27136945  0.83577896  0.40904912    -0.11400
C2398       C  0.28211601  0.83237528  0.41099017    -0.12900
C2399       C  0.30592116  0.74614797  0.15580773    -0.11400
C2400       C  0.30581607  0.74269562  0.14485709    -0.12900
C2401       C  0.19381944  0.77982997  0.37695464    -0.11400
C2402       C  0.19071595  0.77694229  0.36624133    -0.12900
C2403       C  0.17544955  0.75788810  0.25476778    -0.11400
C2404       C  0.18640388  0.75521839  0.24757528     0.10700
C2405       C  0.19819619  0.75548815  0.25397161    -0.11400
C2406       C  0.19904888  0.75915735  0.26671566    -0.11400
C2407       C  0.18804972  0.76090085  0.27410134     0.10700
C2408       C  0.17620036  0.75975559  0.26790818    -0.11400
H2409       H  0.16619598  0.75845451  0.25033325     0.14700
H2410       H  0.20691941  0.75311083  0.24908906     0.14700
H2411       H  0.20841148  0.76041056  0.27079216     0.14700
H2412       H  0.16740159  0.76058699  0.27314453     0.14700
C2413       C  0.23840146  0.76165661  0.19898229    -0.11400
C2414       C  0.23202885  0.75035757  0.20192161     0.10700
C2415       C  0.23907447  0.73941786  0.20471474    -0.11400
C2416       C  0.25232759  0.73969776  0.20440318    -0.11400
C2417       C  0.25872157  0.75101557  0.20161875     0.10700
C2418       C  0.25169701  0.76200932  0.19894504    -0.11400
H2419       H  0.23308859  0.77011468  0.19659667     0.14700
H2420       H  0.23426708  0.73059324  0.20685376     0.14700
H2421       H  0.25762520  0.73112412  0.20639258     0.14700
H2422       H  0.25652939  0.77079234  0.19670664     0.14700
C2423       C  0.18793261  0.73471798  0.15634353    -0.11400
C2424       C  0.19152798  0.73264958  0.14560468    -0.12900
C2425       C  0.30825740  0.74049161  0.26676299    -0.11400
C2426       C  0.30630451  0.75126579  0.27437735     0.10700
C2427       C  0.30418605  0.76308155  0.26871846    -0.11400
C2428       C  0.30405668  0.76413342  0.25552258    -0.11400
C2429       C  0.30606710  0.75338043  0.24790425     0.10700
C2430       C  0.30813389  0.74154493  0.25356315    -0.11400
H2431       H  0.30989739  0.73132451  0.27105919     0.14700
H2432       H  0.30269295  0.77145243  0.27453480     0.14700
H2433       H  0.30241414  0.77329997  0.25122867     0.14700
H2434       H  0.30962896  0.73317298  0.24774769     0.14700
C2435       C  0.25625264  0.76341522  0.31861220    -0.11400
C2436       C  0.26065590  0.75131755  0.32197549     0.10700
C2437       C  0.25178978  0.74184280  0.32506145    -0.11400
C2438       C  0.23870577  0.74447103  0.32477309    -0.11400
C2439       C  0.23435255  0.75656881  0.32131284     0.10700
C2440       C  0.24322453  0.76601449  0.31828169    -0.11400
H2441       H  0.26294375  0.77083320  0.31619839     0.14700
H2442       H  0.25500955  0.73244287  0.32762913     0.14700
H2443       H  0.23197903  0.73711359  0.32725765     0.14700
H2444       H  0.24003484  0.77543430  0.31573467     0.14700
C2445       C  0.30920163  0.74488064  0.36673931    -0.11400
C2446       C  0.30917578  0.74793637  0.37780786    -0.12900
C2447       C  0.36276042  0.75759415  0.20299691    -0.11400
C2448       C  0.35159933  0.75979278  0.20168213    -0.12900
C2449       C  0.36558064  0.74311543  0.31650928    -0.11400
C2450       C  0.35444929  0.74539850  0.31857865    -0.12900
C2451       C  0.40365559  0.67724101  0.26203125    -0.11400
C2452       C  0.40317845  0.68022374  0.25103418    -0.12900
C2453       C  0.46421986  0.75518186  0.23193201    -0.11400
C2454       C  0.47463898  0.75991940  0.23259070    -0.12900
C2455       C  0.47889522  0.74028078  0.27793203    -0.11400
C2456       C  0.46758481  0.73930921  0.28016322    -0.12900
C2457       C  0.49911198  0.75040592  0.25878384    -0.11400
C2458       C  0.49796673  0.75721604  0.24964951    -0.12900
C2459       C  0.53007319  0.77723495  0.23817791    -0.11400
C2460       C  0.51908050  0.77388301  0.23811742    -0.12900
C2461       C  0.52454434  0.73836810  0.26584022    -0.11400
C2462       C  0.53494064  0.73763789  0.26091230    -0.12900
C2463       C  0.58871882  0.75347684  0.18064065    -0.11400
C2464       C  0.58800858  0.76422679  0.17688628    -0.12900
C2465       C  0.64585710  0.69635577  0.25665238    -0.11400
C2466       C  0.63505722  0.69983920  0.25452462    -0.12900
C2467       C  0.70080225  0.76207779  0.25504314    -0.11400
C2468       C  0.68879643  0.76802141  0.25443837     0.10700
C2469       C  0.67807634  0.76014236  0.25310364    -0.11400
C2470       C  0.67940122  0.74705379  0.25167450    -0.11400
C2471       C  0.69114633  0.74106474  0.25395923     0.10700
C2472       C  0.70183523  0.74888519  0.25584455    -0.11400
H2473       H  0.70946873  0.76758910  0.25544278     0.14700
H2474       H  0.66854534  0.76394402  0.25325055     0.14700
H2475       H  0.67096488  0.74157940  0.24949865     0.14700
H2476       H  0.71104655  0.74492647  0.25805468     0.14700
C2477       C  0.73765198  0.81179982  0.27871885    -0.11400
C2478       C  0.73237032  0.81368020  0.26664027     0.10700
C2479       C  0.74050889  0.81433351  0.25609905    -0.11400
C2480       C  0.75369224  0.81339152  0.25762678    -0.11400
C2481       C  0.75895563  0.81121938  0.26965747     0.10700
C2482       C  0.75078887  0.81026082  0.28016532    -0.11400
H2483       H  0.73162206  0.81158937  0.28703134     0.14700
H2484       H  0.73663654  0.81583361  0.24669932     0.14700
H2485       H  0.75979130  0.81461208  0.24945864     0.14700
H2486       H  0.75467366  0.80887193  0.28957835     0.14700
C2487       C  0.64204247  0.81359777  0.24605669    -0.11400
C2488       C  0.63107518  0.81206066  0.24292160    -0.12900
C2489       C  0.75792422  0.69392808  0.26875096    -0.11400
C2490       C  0.76554604  0.69426853  0.25785353     0.10700
C2491       C  0.75971543  0.69506242  0.24588011    -0.11400
C2492       C  0.74645929  0.69533235  0.24478552    -0.11400
C2493       C  0.73882520  0.69505601  0.25567592     0.10700
C2494       C  0.74466062  0.69442500  0.26766726    -0.11400
H2495       H  0.76223166  0.69310513  0.27804680     0.14700
H2496       H  0.76546394  0.69519879  0.23736348     0.14700
H2497       H  0.74214982  0.69557086  0.23545353     0.14700
H2498       H  0.73890231  0.69403703  0.27616679     0.14700
C2499       C  0.82171940  0.74792587  0.26178127    -0.11400
C2500       C  0.81100933  0.74036081  0.25903656     0.10700
C2501       C  0.79920236  0.74660439  0.25809091    -0.11400
C2502       C  0.79786002  0.75930275  0.26175671    -0.11400
C2503       C  0.80855448  0.76697101  0.26428329     0.10700
C2504       C  0.82059390  0.76110368  0.26327356    -0.11400
H2505       H  0.83101641  0.74376145  0.26303648     0.14700
H2506       H  0.79072141  0.74146144  0.25533822     0.14700
H2507       H  0.78830797  0.76287987  0.26284414     0.14700
H2508       H  0.82925259  0.76654853  0.26428397     0.14700
C2509       C  0.13520354  0.78742232  0.31441896    -0.11400
C2510       C  0.14579561  0.78418524  0.31757537    -0.12900
C2511       C  0.14041277  0.74026710  0.20326511    -0.11400
C2512       C  0.12920432  0.74262526  0.20449172    -0.12900
C2513       C  0.08844634  0.83210624  0.23752089    -0.11400
C2514       C  0.08649953  0.82679287  0.22756125    -0.12900
C2515       C  0.02148898  0.77768222  0.28640096    -0.11400
C2516       C  0.03289648  0.77906489  0.28601524    -0.12900
C2517       C  0.02125293  0.74601784  0.25055168    -0.11400
C2518       C  0.03146490  0.74989184  0.24695369    -0.12900
C2519       C  0.99899397  0.75452861  0.26787294    -0.11400
C2520       C  0.99845568  0.76375552  0.27478171    -0.12900
C2521       C  0.86069889  0.80880827  0.29130726    -0.11400
C2522       C  0.84989049  0.81130898  0.28825443    -0.12900
C2523       C  0.96294872  0.77795514  0.28597706    -0.11400
C2524       C  0.97438928  0.77797373  0.28465329    -0.12900
C2525       C  0.86834571  0.69669892  0.25679639    -0.11400
C2526       C  0.85756923  0.69477973  0.25327661    -0.12900
C2527       C  0.96740597  0.73255713  0.26885825    -0.11400
C2528       C  0.97780660  0.73481963  0.26455409    -0.12900
C2529       C  0.90579720  0.73193603  0.34400863    -0.11400
C2530       C  0.90537461  0.74257515  0.34819367    -0.12900
C2531       C  0.80960099  0.63673980  0.24392547    -0.11400
C2532       C  0.81136686  0.64734836  0.24801966    -0.12900
C2533       C  0.69272176  0.64855525  0.25178913    -0.11400
C2534       C  0.69491461  0.63770380  0.24872450    -0.12900
C2535       C  0.74216759  0.59763822  0.17127999    -0.11400
C2536       C  0.75346674  0.59861826  0.16989458    -0.12900
C2537       C  0.78457278  0.53397178  0.23604050    -0.11400
C2538       C  0.78418103  0.52265630  0.23795346    -0.12900
C2539       C  0.73991932  0.54211735  0.25225531    -0.11400
C2540       C  0.74180479  0.53238885  0.25799144    -0.12900
C2541       C  0.75508658  0.50656746  0.25387159    -0.11400
C2542       C  0.76384188  0.50393492  0.24690422    -0.12900
C2543       C  0.76513607  0.46838162  0.23338145    -0.11400
C2544       C  0.77112889  0.47792881  0.23572555    -0.12900
C2545       C  0.74249235  0.48820610  0.27265505    -0.11400
C2546       C  0.73998955  0.47713135  0.27426175    -0.12900
C2547       C  0.67759312  0.42230367  0.23787094    -0.11400
C2548       C  0.67361940  0.42212847  0.24856894    -0.12900
C2549       C  0.67629759  0.09814285  0.27389586    -0.11400
C2550       C  0.67873449  0.09802448  0.28505821    -0.12900
C2551       C  0.75406635  0.03936439  0.29365643    -0.11400
C2552       C  0.75832533  0.02883570  0.29181866    -0.12900
C2553       C  0.74016843  0.02647799  0.24461401    -0.11400
C2554       C  0.73898801  0.03776828  0.24258636    -0.12900
C2555       C  0.74574787  0.00558532  0.26507387    -0.11400
C2556       C  0.75259650  0.00595933  0.27435143    -0.12900
C2557       C  0.79864335  0.86851680  0.28690165    -0.11400
C2558       C  0.80205659  0.85767561  0.28508854    -0.12900
C2559       C  0.76827462  0.97165941  0.28562349    -0.11400
C2560       C  0.76762757  0.98315543  0.28538078    -0.12900
C2561       C  0.68823852  0.87245931  0.25506469    -0.11400
C2562       C  0.68773170  0.86102068  0.25400025    -0.12900
C2563       C  0.72496943  0.97283755  0.26147812    -0.11400
C2564       C  0.72933404  0.98254449  0.25711519    -0.12900
C2565       C  0.71014035  0.91281919  0.33258833    -0.11400
C2566       C  0.72081709  0.91059045  0.33605866    -0.12900
C2567       C  0.75242154  0.14321217  0.31906080    -0.11400
C2568       C  0.75337266  0.15463841  0.31883035    -0.12900
C2569       C  0.73872003  0.30986725  0.13390084    -0.11400
C2570       C  0.74141675  0.31118271  0.14498659    -0.12900
C2571       C  0.75075042  0.37156353  0.19087371    -0.11400
C2572       C  0.75182252  0.36031002  0.18880491    -0.12900
C2573       C  0.72780304  0.24911320  0.19389949    -0.11400
C2574       C  0.73829031  0.24104662  0.19543347     0.10700
C2575       C  0.75053716  0.24624358  0.19639058    -0.11400
C2576       C  0.75230081  0.25937827  0.19571881    -0.11400
C2577       C  0.74182950  0.26744809  0.19409208     0.10700
C2578       C  0.72956207  0.26225409  0.19325841    -0.11400
H2579       H  0.71830048  0.24521286  0.19316087     0.14700
H2580       H  0.75870924  0.24010871  0.19755213     0.14700
H2581       H  0.76181515  0.26326431  0.19637764     0.14700
H2582       H  0.72139725  0.26838533  0.19203721     0.14700
C2583       C  0.73075986  0.19081284  0.25182566    -0.11400
C2584       C  0.73957653  0.19631590  0.24349292     0.10700
C2585       C  0.75031756  0.20247912  0.24851812    -0.11400
C2586       C  0.75224846  0.20309355  0.26164091    -0.11400
C2587       C  0.74349418  0.19752400  0.26996670     0.10700
C2588       C  0.73271521  0.19139704  0.26497210    -0.11400
H2589       H  0.72238013  0.18608627  0.24813051     0.14700
H2590       H  0.75721624  0.20678283  0.24225051     0.14700
H2591       H  0.76059242  0.20788819  0.26533195     0.14700
H2592       H  0.72581820  0.18712848  0.27126331     0.14700
C2593       C  0.72009529  0.19704245  0.14100400    -0.11400
C2594       C  0.72362549  0.19449876  0.15166158    -0.12900
C2595       C  0.73036775  0.14831579  0.19914779    -0.11400
C2596       C  0.72876296  0.13720377  0.20167888    -0.12900
C2597       C  0.75937149  0.26675968  0.30650763    -0.11400
C2598       C  0.74919744  0.27362410  0.31172951     0.10700
C2599       C  0.73911029  0.26709854  0.31748160    -0.11400
C2600       C  0.73935068  0.25390377  0.31831398    -0.11400
C2601       C  0.74959368  0.24707535  0.31324966     0.10700
C2602       C  0.75953399  0.25352540  0.30721134    -0.11400
H2603       H  0.76719067  0.27166712  0.30200026     0.14700
H2604       H  0.73114927  0.27226845  0.32146692     0.14700
H2605       H  0.73158798  0.24899551  0.32291799     0.14700
H2606       H  0.76744999  0.24830989  0.30319939     0.14700
C2607       C  0.73736164  0.31852335  0.25703459    -0.11400
C2608       C  0.74860653  0.31930437  0.26415503     0.10700
C2609       C  0.76040078  0.31911006  0.25796662    -0.11400
C2610       C  0.76094934  0.31802700  0.24475381    -0.11400
C2611       C  0.74969935  0.31711287  0.23764436     0.10700
C2612       C  0.73790781  0.31743529  0.24383945    -0.11400
H2613       H  0.72820849  0.31859717  0.26172833     0.14700
H2614       H  0.76913950  0.31968625  0.26338725     0.14700
H2615       H  0.77010096  0.31786554  0.24006061     0.14700
H2616       H  0.72916282  0.31677495  0.23843630     0.14700
C2617       C  0.73875358  0.36613408  0.30952991    -0.11400
C2618       C  0.73550974  0.37696463  0.30767738    -0.12900
C2619       C  0.74723035  0.20596028  0.37362815    -0.11400
C2620       C  0.75006405  0.20461007  0.36254879    -0.12900
C2621       C  0.73498252  0.31628921  0.36706912    -0.11400
C2622       C  0.73862942  0.31944677  0.35666993    -0.12900
C2623       C  0.67159463  0.23701029  0.41490208    -0.11400
C2624       C  0.67133586  0.24805297  0.41203316    -0.12900
C2625       C  0.75005471  0.23803964  0.48607542    -0.11400
C2626       C  0.74497210  0.23481961  0.47621953    -0.12900
C2627       C  0.73121967  0.28434417  0.48035945    -0.11400
C2628       C  0.73131017  0.28616662  0.46903457    -0.12900
C2629       C  0.73920036  0.26813564  0.50396932    -0.11400
C2630       C  0.74699757  0.25975444  0.50517807    -0.12900
C2631       C  0.80841359  0.25235965  0.63807401    -0.11400
C2632       C  0.81064030  0.25044142  0.64920777    -0.12900
C2633       C  0.76875047  0.25858148  0.53803461    -0.11400
C2634       C  0.76553017  0.25426402  0.52778122    -0.12900
C2635       C  0.68988334  0.28087823  0.64843557    -0.11400
C2636       C  0.69078766  0.28422650  0.63754998    -0.12900
C2637       C  0.72157254  0.27722578  0.53707794    -0.11400
C2638       C  0.72212730  0.27679530  0.52566395    -0.12900
C2639       C  0.76079641  0.33914813  0.59784751    -0.11400
C2640       C  0.77161269  0.33545207  0.59765712    -0.12900
loop_ 
_geom_bond_atom_site_label_1 
_geom_bond_atom_site_label_2 
_geom_bond_distance 
_geom_bond_site_symmetry_2 
_ccdc_geom_bond_type 
N1            N2   1.323       .  A
N1            C5   1.352       .  A
N1           Cu9   2.092       .  S
N2            C3   1.339       .  A
N2           Cu8   2.057       .  S
C3            C4   1.373       .  A
C3            H6   1.082       .  S
C4            C5   1.387       .  A
C4         C2637   1.436       .  S
C5            H7   1.082       .  S
Cu8          N11   2.055       .  S
Cu9          N19   2.094       .  S
Cu10         N12   2.066       .  S
Cu10         N18   2.067       .  S
N11          N12   1.317       .  A
N11          C15   1.340       .  A
N12          C13   1.346       .  A
C13          C14   1.386       .  A
C13          H16   1.082       .  S
C14          C15   1.381       .  A
C14        C2639   1.433       .  S
C15          H17   1.083       .  S
N18          N19   1.326       .  A
N18          C22   1.341       .  A
N19          C20   1.350       .  A
C20          C21   1.384       .  A
C20          H23   1.082       .  S
C21          C22   1.374       .  A
C21        C2636   1.436       .  S
C22          H24   1.082       .  S
N25          N26   1.326       .  A
N25          C29   1.356       .  A
N25         Cu33   2.136       .  S
N26          C27   1.347       .  A
N26         Cu32   2.073       .  S
C27          C28   1.378       .  A
C27          H30   1.082       .  S
C28          C29   1.394       .  A
C28        C2633   1.457       .  S
C29          H31   1.082       .  S
Cu32         N35   2.071       .  S
Cu33         N43   2.135       .  S
Cu34         N36   2.055       .  S
Cu34         N42   2.056       .  S
N35          N36   1.318       .  A
N35          C39   1.342       .  A
N36          C37   1.345       .  A
C37          C38   1.382       .  A
C37          H40   1.082       .  S
C38          C39   1.384       .  A
C38        C2640   1.433       .  S
C39          H41   1.083       .  S
N42          N43   1.325       .  A
N42          C46   1.340       .  A
N43          C44   1.358       .  A
C44          C45   1.395       .  A
C44          H47   1.082       .  S
C45          C46   1.372       .  A
C45        C2631   1.449       .  S
C46          H48   1.082       .  S
N49          C53   1.359       .  A
N49          C50   1.354       .  A
N49        C2629   1.412       .  S
C50          C51   1.379       .  A
C50        C2638   1.439       .  S
C51          C52   1.373       .  A
C51          H54   1.083       .  S
C52          C53   1.381       .  A
C52          H55   1.083       .  S
C53        C2627   1.444       .  S
N56          C60   1.363       .  A
N56          C57   1.359       .  A
N56        C2630   1.412       .  S
C57          C58   1.380       .  A
C57        C2625   1.454       .  S
C58          C59   1.378       .  A
C58          H61   1.082       .  S
C59          C60   1.381       .  A
C59          H62   1.082       .  S
C60        C2634   1.457       .  S
N63          N64   1.323       .  A
N63          C67   1.354       .  A
N63         Cu71   2.099       .  S
N64          C65   1.341       .  A
N64         Cu70   2.061       .  S
C65          C66   1.375       .  A
C65          H68   1.082       .  S
C66          C67   1.389       .  A
C66        C2628   1.445       .  S
C67          H69   1.082       .  S
Cu70         N73   2.059       .  S
Cu71         N81   2.100       .  S
Cu72         N74   2.079       .  S
Cu72         N80   2.081       .  S
N73          N74   1.319       .  A
N73          C77   1.342       .  A
N74          C75   1.347       .  A
C75          C76   1.386       .  A
C75          H78   1.082       .  S
C76          C77   1.379       .  A
C76        C2624   1.436       .  S
C77          H79   1.082       .  S
N80          N81   1.326       .  A
N80          C84   1.345       .  A
N81          C82   1.351       .  A
C82          C83   1.384       .  A
C82          H85   1.082       .  S
C83          C84   1.378       .  A
C83        C2621   1.444       .  S
C84          H86   1.082       .  S
N87          N88   1.326       .  A
N87          C91   1.352       .  A
N87         Cu95   2.117       .  S
N88          C89   1.348       .  A
N88         Cu94   2.078       .  S
C89          C90   1.380       .  A
C89          H92   1.082       .  S
C90          C91   1.387       .  A
C90        C2626   1.451       .  S
C91          H93   1.082       .  S
Cu94         N97   2.075       .  S
Cu95        N105   2.116       .  S
Cu96         N98   2.058       .  S
Cu96        N104   2.061       .  S
N97          N98   1.320       .  A
N97         C101   1.343       .  A
N98          C99   1.343       .  A
C99         C100   1.381       .  A
C99         H102   1.083       .  S
C100        C101   1.385       .  A
C100       C2623   1.435       .  S
C101        H103   1.083       .  S
N104        N105   1.324       .  A
N104        C108   1.343       .  A
N105        C106   1.354       .  A
C106        C107   1.391       .  A
C106        H109   1.082       .  S
C107        C108   1.375       .  A
C107       C2619   1.448       .  S
C108        H110   1.082       .  S
N111        C116   1.354       .  A
N111        C115   1.354       .  A
N111        H143   1.038       .  S
N112        C119   1.350       .  A
N112        C120   1.351       .  A
N113        C118   1.354       .  A
N113        C117   1.355       .  A
N113        H144   1.029       .  S
N114        C121   1.352       .  A
N114        C122   1.352       .  A
C115        C123   1.387       .  A
C115        C131   1.416       .  A
C116        C132   1.415       .  A
C116        C124   1.388       .  A
C117        C125   1.387       .  A
C117        C134   1.421       .  A
C118        C133   1.423       .  A
C118        C126   1.389       .  A
C119        C131   1.413       .  A
C119        C127   1.386       .  A
C120        C134   1.415       .  A
C120        C128   1.388       .  A
C121        C129   1.385       .  A
C121        C132   1.414       .  A
C122        C130   1.389       .  A
C122        C133   1.420       .  A
C123        C124   1.372       .  A
C123        H135   1.082       .  S
C124        H136   1.082       .  S
C125        C126   1.380       .  A
C125        H137   1.082       .  S
C126        H138   1.082       .  S
C127        C128   1.369       .  A
C127        H139   1.082       .  S
C128        H140   1.082       .  S
C129        C130   1.372       .  A
C129        H141   1.083       .  S
C130        H142   1.082       .  S
C131       C2598   1.484       .  S
C132       C2608   1.481       .  S
C133       C2617   1.454       .  S
C134       C2622   1.456       .  S
N145        C150   1.353       .  A
N145        C149   1.353       .  A
N145        H177   1.039       .  S
N146        C153   1.353       .  A
N146        C154   1.352       .  A
N147        C152   1.356       .  A
N147        C151   1.358       .  A
N147        H178   1.039       .  S
N148        C155   1.355       .  A
N148        C156   1.354       .  A
C149        C157   1.386       .  A
C149        C165   1.413       .  A
C150        C166   1.417       .  A
C150        C158   1.388       .  A
C151        C159   1.387       .  A
C151        C168   1.422       .  A
C152        C167   1.422       .  A
C152        C160   1.387       .  A
C153        C165   1.413       .  A
C153        C161   1.386       .  A
C154        C168   1.414       .  A
C154        C162   1.388       .  A
C155        C163   1.385       .  A
C155        C166   1.417       .  A
C156        C164   1.388       .  A
C156        C167   1.417       .  A
C157        C158   1.376       .  A
C157        H169   1.082       .  S
C158        H170   1.082       .  S
C159        C160   1.382       .  A
C159        H171   1.082       .  S
C160        H172   1.082       .  S
C161        C162   1.372       .  A
C161        H173   1.082       .  S
C162        H174   1.082       .  S
C163        C164   1.373       .  A
C163        H175   1.082       .  S
C164        H176   1.082       .  S
C165       C2574   1.483       .  S
C166       C2584   1.492       .  S
C167       C2595   1.463       .  S
C168       C2594   1.462       .  S
N179        C184   1.355       .  A
N179        C183   1.355       .  A
N179        H211   1.013       .  S
N180        C187   1.354       .  A
N180        C188   1.353       .  A
N181        C186   1.358       .  A
N181        C185   1.357       .  A
N181        H212   1.013       .  S
N182        C189   1.352       .  A
N182        C190   1.352       .  A
C183        C191   1.387       .  A
C183        C199   1.419       .  A
C184        C200   1.420       .  A
C184        C192   1.388       .  A
C185        C193   1.388       .  A
C185        C202   1.423       .  A
C186        C201   1.423       .  A
C186        C194   1.387       .  A
C187        C199   1.419       .  A
C187        C195   1.386       .  A
C188        C202   1.420       .  A
C188        C196   1.388       .  A
C189        C197   1.386       .  A
C189        C200   1.417       .  A
C190        C198   1.389       .  A
C190        C201   1.418       .  A
C191        C192   1.374       .  A
C191        H203   1.082       .  S
C192        H204   1.082       .  S
C193        C194   1.379       .  A
C193        H205   1.082       .  S
C194        H206   1.082       .  S
C195        C196   1.371       .  A
C195        H207   1.082       .  S
C196        H208   1.082       .  S
C197        C198   1.368       .  A
C197        H209   1.082       .  S
C198        H210   1.082       .  S
C199       C2577   1.486       .  S
C200       C2611   1.482       .  S
C201       C2572   1.457       .  S
C202       C2570   1.456       .  S
N213        C218   1.354       .  A
N213        C217   1.351       .  A
N213        H245   1.038       .  S
N214        C221   1.350       .  A
N214        C222   1.352       .  A
N215        C220   1.354       .  A
N215        C219   1.358       .  A
N215        H246   1.038       .  S
N216        C223   1.354       .  A
N216        C224   1.352       .  A
C217        C225   1.387       .  A
C217        C233   1.413       .  A
C218        C234   1.416       .  A
C218        C226   1.387       .  A
C219        C227   1.387       .  A
C219        C236   1.420       .  A
C220        C235   1.418       .  A
C220        C228   1.388       .  A
C221        C233   1.413       .  A
C221        C229   1.387       .  A
C222        C236   1.411       .  A
C222        C230   1.386       .  A
C223        C231   1.385       .  A
C223        C234   1.415       .  A
C224        C232   1.388       .  A
C224        C235   1.415       .  A
C225        C226   1.375       .  A
C225        H237   1.082       .  S
C226        H238   1.082       .  S
C227        C228   1.378       .  A
C227        H239   1.082       .  S
C228        H240   1.082       .  S
C229        C230   1.374       .  A
C229        H241   1.082       .  S
C230        H242   1.082       .  S
C231        C232   1.373       .  A
C231        H243   1.082       .  S
C232        H244   1.082       .  S
C233       C2601   1.477       .  S
C234       C2587   1.490       .  S
C235       C2568   1.454       .  S
C236       C2620   1.461       .  S
N247        N248   1.326       .  A
N247        C251   1.353       .  A
N247       Cu255   2.125       .  S
N248        C249   1.346       .  A
N248       Cu254   2.070       .  S
C249        C250   1.378       .  A
C249        H252   1.082       .  S
C250        C251   1.390       .  A
C250       C2563   1.452       .  S
C251        H253   1.082       .  S
Cu254       N257   2.066       .  S
Cu255       N265   2.124       .  S
Cu256       N258   2.053       .  S
Cu256       N264   2.051       .  S
N257        N258   1.318       .  A
N257        C261   1.342       .  A
N258        C259   1.345       .  A
C259        C260   1.382       .  A
C259        H262   1.082       .  S
C260        C261   1.382       .  A
C260       C2565   1.435       .  S
C261        H263   1.083       .  S
N264        N265   1.324       .  A
N264        C268   1.340       .  A
N265        C266   1.355       .  A
C266        C267   1.392       .  A
C266        H269   1.082       .  S
C267        C268   1.372       .  A
C267       C2561   1.444       .  S
C268        H270   1.082       .  S
N271        N272   1.324       .  A
N271        C275   1.357       .  A
N271       Cu279   2.121       .  S
N272        C273   1.341       .  A
N272       Cu278   2.063       .  S
C273        C274   1.374       .  A
C273        H276   1.082       .  S
C274        C275   1.393       .  A
C274       C2559   1.450       .  S
C275        H277   1.082       .  S
Cu278       N281   2.060       .  S
Cu279       N289   2.122       .  S
Cu280       N282   2.063       .  S
Cu280       N288   2.065       .  S
N281        N282   1.318       .  A
N281        C285   1.341       .  A
N282        C283   1.346       .  A
C283        C284   1.385       .  A
C283        H286   1.082       .  S
C284        C285   1.381       .  A
C284       C2566   1.435       .  S
C285        H287   1.083       .  S
N288        N289   1.326       .  A
N288        C292   1.341       .  A
N289        C290   1.355       .  A
C290        C291   1.390       .  A
C290        H293   1.082       .  S
C291        C292   1.373       .  A
C291       C2557   1.446       .  S
C292        H294   1.082       .  S
N295        C299   1.361   1_545  A
N295        C296   1.363       .  A
N295       C2555   1.414       .  S
C296        C297   1.381       .  A
C296       C2553   1.455       .  S
C297        C298   1.375   1_545  A
C297        H300   1.083       .  S
C298        C299   1.379       .  A
C298        H301   1.082       .  S
C299       C2564   1.452       .  S
N302        C306   1.359       .  A
N302        C303   1.360   1_545  A
N302       C2556   1.414       .  S
C303        C304   1.381   1_565  A
C303       C2560   1.452       .  S
C304        C305   1.376       .  A
C304        H307   1.083   1_545  S
C305        C306   1.380       .  A
C305        H308   1.082       .  S
C306       C2552   1.448       .  S
N309        N310   1.325       .  A
N309        C313   1.360       .  A
N309       Cu317   2.139       .  S
N310        C311   1.341       .  A
N310       Cu316   2.058       .  S
C311        C312   1.373       .  A
C311        H314   1.082       .  S
C312        C313   1.397       .  A
C312       C2554   1.454       .  S
C313        H315   1.082       .  S
Cu316       N319   2.056       .  S
Cu317       N327   2.139       .  S
Cu318       N320   2.058       .  S
Cu318       N326   2.058       .  S
N319        N320   1.317       .  A
N319        C323   1.340       .  A
N320        C321   1.346       .  A
C321        C322   1.384       .  A
C321        H324   1.082       .  S
C322        C323   1.381       .  A
C322       C2549   1.434       .  S
C323        H325   1.083       .  S
N326        N327   1.326       .  A
N326        C330   1.341       .  A
N327        C328   1.357       .  A
C328        C329   1.394       .  A
C328        H331   1.082       .  S
C329        C330   1.372       .  A
C329       C2596   1.449       .  S
C330        H332   1.082       .  S
N333        N334   1.325       .  A
N333        C337   1.353       .  A
N333       Cu341   2.116       .  S
N334        C335   1.344       .  A
N334       Cu340   2.065       .  S
C335        C336   1.375       .  A
C335        H338   1.082       .  S
C336        C337   1.389       .  A
C336       C2551   1.447       .  S
C337        H339   1.082       .  S
Cu340       N343   2.063       .  S
Cu341       N351   2.115       .  S
Cu342       N344   2.053       .  S
Cu342       N350   2.051       .  S
N343        N344   1.318       .  A
N343        C347   1.341       .  A
N344        C345   1.346       .  A
C345        C346   1.383       .  A
C345        H348   1.082       .  S
C346        C347   1.382       .  A
C346       C2550   1.434       .  S
C347        H349   1.083       .  S
N350        N351   1.325       .  A
N350        C354   1.339       .  A
N351        C352   1.354       .  A
C352        C353   1.390       .  A
C352        H355   1.082       .  S
C353        C354   1.371       .  A
C353       C2567   1.440       .  S
C354        H356   1.082       .  S
N357        N358   1.324       .  A
N357        C361   1.352       .  A
N357       Cu365   2.097       .  S
N358        C359   1.342       .  A
N358       Cu364   2.068       .  S
C359        C360   1.377       .  A
C359        H362   1.082       .  S
C360        C361   1.386       .  A
C360       C2546   1.443       .  S
C361        H363   1.082       .  S
Cu364       N367   2.063       .  S
Cu365       N375   2.097       .  S
Cu366       N368   2.066       .  S
Cu366       N374   2.067       .  S
N367        N368   1.319       .  A
N367        C371   1.341       .  A
N368        C369   1.345       .  A
C369        C370   1.384       .  A
C369        H372   1.082       .  S
C370        C371   1.382       .  A
C370       C2548   1.434       .  S
C371        H373   1.083       .  S
N374        N375   1.325       .  A
N374        C378   1.343       .  A
N375        C376   1.350       .  A
C376        C377   1.385       .  A
C376        H379   1.082       .  S
C377        C378   1.376       .  A
C377       C2618   1.440       .  S
C378        H380   1.082       .  S
N381        N382   1.325       .  A
N381        C385   1.352       .  A
N381       Cu389   2.112       .  S
N382        C383   1.345       .  A
N382       Cu388   2.069       .  S
C383        C384   1.376       .  A
C383        H386   1.082       .  S
C384        C385   1.388       .  A
C384       C2543   1.446       .  S
C385        H387   1.082       .  S
Cu388       N391   2.068       .  S
Cu389       N399   2.112       .  S
Cu390       N392   2.059       .  S
Cu390       N398   2.060       .  S
N391        N392   1.319       .  A
N391        C395   1.342       .  A
N392        C393   1.345       .  A
C393        C394   1.383       .  A
C393        H396   1.082       .  S
C394        C395   1.383       .  A
C394       C2547   1.434       .  S
C395        H397   1.082       .  S
N398        N399   1.325       .  A
N398        C402   1.341       .  A
N399        C400   1.354       .  A
C400        C401   1.389       .  A
C400        H403   1.082       .  S
C401        C402   1.373       .  A
C401       C2571   1.442       .  S
C402        H404   1.082       .  S
N405        C409   1.355       .  A
N405        C406   1.356       .  A
N405       C2541   1.409       .  S
C406        C407   1.380       .  A
C406       C2540   1.445       .  S
C407        C408   1.377       .  A
C407        H410   1.082       .  S
C408        C409   1.380       .  A
C408        H411   1.082       .  S
C409       C2545   1.445       .  S
N412        C416   1.355       .  A
N412        C413   1.355       .  A
N412       C2542   1.409       .  S
C413        C414   1.381       .  A
C413       C2544   1.448       .  S
C414        C415   1.380       .  A
C414        H417   1.082       .  S
C415        C416   1.381       .  A
C415        H418   1.082       .  S
C416       C2538   1.449       .  S
N419        N420   1.324       .  A
N419        C423   1.350       .  A
N419       Cu427   2.104       .  S
N420        C421   1.346       .  A
N420       Cu426   2.069       .  S
C421        C422   1.377       .  A
C421        H424   1.082       .  S
C422        C423   1.386       .  A
C422       C2539   1.444       .  S
C423        H425   1.082       .  S
Cu426       N429   2.068       .  S
Cu427       N437   2.104       .  S
Cu428       N430   2.062       .  S
Cu428       N436   2.063       .  S
N429        N430   1.319       .  A
N429        C433   1.340       .  A
N430        C431   1.346       .  A
C431        C432   1.384       .  A
C431        H434   1.082       .  S
C432        C433   1.383       .  A
C432       C2535   1.432       .  S
C433        H435   1.083       .  S
N436        N437   1.324       .  A
N436        C440   1.342       .  A
N437        C438   1.352       .  A
C438        C439   1.387       .  A
C438        H441   1.082       .  S
C439        C440   1.375       .  A
C439       C2534   1.441       .  S
C440        H442   1.082       .  S
N443        N444   1.324       .  A
N443        C447   1.352       .  A
N443       Cu451   2.103       .  S
N444        C445   1.344       .  A
N444       Cu450   2.073       .  S
C445        C446   1.378       .  A
C445        H448   1.082       .  S
C446        C447   1.387       .  A
C446       C2537   1.446       .  S
C447        H449   1.082       .  S
Cu450       N453   2.071       .  S
Cu451       N461   2.103       .  S
Cu452       N454   2.067       .  S
Cu452       N460   2.069       .  S
N453        N454   1.319       .  A
N453        C457   1.342       .  A
N454        C455   1.346       .  A
C455        C456   1.384       .  A
C455        H458   1.082       .  S
C456        C457   1.384       .  A
C456       C2536   1.432       .  S
C457        H459   1.083       .  S
N460        N461   1.325       .  A
N460        C464   1.343       .  A
N461        C462   1.352       .  A
C462        C463   1.386       .  A
C462        H465   1.082       .  S
C463        C464   1.376       .  A
C463       C2531   1.443       .  S
C464        H466   1.082       .  S
N467        N468   1.324       .  A
N467        C471   1.349       .  A
N467       Cu475   2.099       .  S
N468        C469   1.345       .  A
N468       Cu474   2.069       .  S
C469        C470   1.377       .  A
C469        H472   1.082       .  S
C470        C471   1.385       .  A
C470       C2527   1.443       .  S
C471        H473   1.082       .  S
Cu474       N477   2.067       .  S
Cu475       N485   2.099       .  S
Cu476       N478   2.066       .  S
Cu476       N484   2.066       .  S
N477        N478   1.319       .  A
N477        C481   1.342       .  A
N478        C479   1.345       .  A
C479        C480   1.384       .  A
C479        H482   1.082       .  S
C480        C481   1.382       .  A
C480       C2529   1.434       .  S
C481        H483   1.082       .  S
N484        N485   1.324       .  A
N484        C488   1.341       .  A
N485        C486   1.352       .  A
C486        C487   1.386       .  A
C486        H489   1.082       .  S
C487        C488   1.375       .  A
C487       C2525   1.441       .  S
C488        H490   1.082       .  S
N491        N492   1.324       .  A
N491        C495   1.355       .  A
N491       Cu499   2.112       .  S
N492        C493   1.341       .  A
N492       Cu498   2.064       .  S
C493        C494   1.375       .  A
C493        H496   1.082       .  S
C494        C495   1.391       .  A
C494       C2523   1.447       .  S
C495        H497   1.082       .  S
Cu498       N501   2.061       .  S
Cu499       N509   2.113       .  S
Cu500       N502   2.065       .  S
Cu500       N508   2.067       .  S
N501        N502   1.318       .  A
N501        C505   1.341       .  A
N502        C503   1.345       .  A
C503        C504   1.384       .  A
C503        H506   1.082       .  S
C504        C505   1.383       .  A
C504       C2530   1.433       .  S
C505        H507   1.083       .  S
N508        N509   1.326       .  A
N508        C512   1.343       .  A
N509        C510   1.352       .  A
C510        C511   1.388       .  A
C510        H513   1.082       .  S
C511        C512   1.375       .  A
C511       C2521   1.444       .  S
C512        H514   1.082       .  S
N515        C519   1.358   1_655  A
N515        C516   1.356       .  A
N515       C2519   1.413       .  S
C516        C517   1.380       .  A
C516       C2528   1.445       .  S
C517        C518   1.376   1_655  A
C517        H520   1.082       .  S
C518        C519   1.380       .  A
C518        H521   1.082       .  S
C519       C2517   1.447       .  S
N522        C526   1.357   1_655  A
N522        C523   1.359       .  A
N522       C2520   1.412       .  S
C523        C524   1.380       .  A
C523       C2524   1.447       .  S
C524        C525   1.373   1_655  A
C524        H527   1.083       .  S
C525        C526   1.379       .  A
C525        H528   1.083       .  S
C526       C2515   1.445       .  S
N529        N530   1.324       .  A
N529        C533   1.353       .  A
N529       Cu537   2.117       .  S
N530        C531   1.343       .  A
N530       Cu536   2.061       .  S
C531        C532   1.374       .  A
C531        H534   1.082       .  S
C532        C533   1.391       .  A
C532       C2518   1.446       .  S
C533        H535   1.082       .  S
Cu536       N539   2.060       .  S
Cu537       N547   2.117       .  S
Cu538       N540   2.066       .  S
Cu538       N546   2.066       .  S
N539        N540   1.318       .  A
N539        C543   1.341       .  A
N540        C541   1.346       .  A
C541        C542   1.384       .  A
C541        H544   1.082       .  S
C542        C543   1.382       .  A
C542       C2514   1.435       .  S
C543        H545   1.083       .  S
N546        N547   1.325       .  A
N546        C550   1.343       .  A
N547        C548   1.354       .  A
C548        C549   1.390       .  A
C548        H551   1.082       .  S
C549        C550   1.375       .  A
C549       C2512   1.446       .  S
C550        H552   1.082       .  S
N553        N554   1.323       .  A
N553        C557   1.353       .  A
N553       Cu561   2.103       .  S
N554        C555   1.342       .  A
N554       Cu560   2.063       .  S
C555        C556   1.376       .  A
C555        H558   1.082       .  S
C556        C557   1.388       .  A
C556       C2516   1.443       .  S
C557        H559   1.082       .  S
Cu560       N563   2.058       .  S
Cu561       N571   2.105       .  S
Cu562       N564   2.075       .  S
Cu562       N570   2.078       .  S
N563        N564   1.319       .  A
N563        C567   1.341       .  A
N564        C565   1.346       .  A
C565        C566   1.386       .  A
C565        H568   1.082       .  S
C566        C567   1.381       .  A
C566       C2513   1.435       .  S
C567        H569   1.083       .  S
N570        N571   1.325       .  A
N570        C574   1.345       .  A
N571        C572   1.351       .  A
C572        C573   1.386       .  A
C572        H575   1.082       .  S
C573        C574   1.378       .  A
C573       C2509   1.447       .  S
C574        H576   1.082       .  S
N577        C582   1.353       .  A
N577        C581   1.355       .  A
N577        H609   1.043       .  S
N578        C585   1.354       .  A
N578        C586   1.350       .  A
N579        C584   1.354       .  A
N579        C583   1.354       .  A
N579        H610   1.039       .  S
N580        C587   1.352       .  A
N580        C588   1.352       .  A
C581        C589   1.389       .  A
C581        C597   1.424       .  A
C582        C598   1.410       .  A
C582        C590   1.384       .  A
C583        C591   1.388       .  A
C583        C600   1.417       .  A
C584        C599   1.416       .  A
C584        C592   1.387       .  A
C585        C597   1.422       .  A
C585        C593   1.388       .  A
C586        C600   1.410       .  A
C586        C594   1.384       .  A
C587        C595   1.385       .  A
C587        C598   1.411       .  A
C588        C596   1.388       .  A
C588        C599   1.414       .  A
C589        C590   1.376       .  A
C589        H601   1.082       .  S
C590        H602   1.081       .  S
C591        C592   1.381       .  A
C591        H603   1.082       .  S
C592        H604   1.082       .  S
C593        C594   1.377       .  A
C593        H605   1.081       .  S
C594        H606   1.083       .  S
C595        C596   1.372       .  A
C595        H607   1.082       .  S
C596        H608   1.082       .  S
C597       C2500   1.517       .  S
C598       C2490   1.487       .  S
C599       C2532   1.456       .  S
C600       C2526   1.453       .  S
N611        C616   1.352       .  A
N611        C615   1.351       .  A
N611        H643   1.043       .  S
N612        C619   1.353       .  A
N612        C620   1.352       .  A
N613        C618   1.355       .  A
N613        C617   1.353       .  A
N613        H644   1.040       .  S
N614        C621   1.352       .  A
N614        C622   1.349       .  A
C615        C623   1.388       .  A
C615        C631   1.413       .  A
C616        C632   1.417       .  A
C616        C624   1.386       .  A
C617        C625   1.389       .  A
C617        C634   1.419       .  A
C618        C633   1.415       .  A
C618        C626   1.386       .  A
C619        C631   1.416       .  A
C619        C627   1.386       .  A
C620        C634   1.415       .  A
C620        C628   1.387       .  A
C621        C629   1.388       .  A
C621        C632   1.419       .  A
C622        C630   1.383       .  A
C622        C633   1.406       .  A
C623        C624   1.376       .  A
C623        H635   1.079       .  S
C624        H636   1.082       .  S
C625        C626   1.383       .  A
C625        H637   1.082       .  S
C626        H638   1.082       .  S
C627        C628   1.376       .  A
C627        H639   1.082       .  S
C628        H640   1.082       .  S
C629        C630   1.375       .  A
C629        H641   1.081       .  S
C630        H642   1.082       .  S
C631       C2478   1.490       .  S
C632       C2468   1.510       .  S
C633       C2487   1.454       .  S
C634       C2562   1.457       .  S
N645        C650   1.354       .  A
N645        C649   1.351       .  A
N645        H677   1.043       .  S
N646        C653   1.354       .  A
N646        C654   1.352       .  A
N647        C652   1.356       .  A
N647        C651   1.352       .  A
N647        H678   1.040       .  S
N648        C655   1.350       .  A
N648        C656   1.351       .  A
C649        C657   1.385       .  A
C649        C665   1.412       .  A
C650        C666   1.422       .  A
C650        C658   1.389       .  A
C651        C659   1.389       .  A
C651        C668   1.419       .  A
C652        C667   1.417       .  A
C652        C660   1.385       .  A
C653        C665   1.414       .  A
C653        C661   1.386       .  A
C654        C668   1.415       .  A
C654        C662   1.388       .  A
C655        C663   1.389       .  A
C655        C666   1.418       .  A
C656        C664   1.383       .  A
C656        C667   1.405       .  A
C657        C658   1.380       .  A
C657        H669   1.081       .  S
C658        H670   1.081       .  S
C659        C660   1.384       .  A
C659        H671   1.082       .  S
C660        H672   1.082       .  S
C661        C662   1.373       .  A
C661        H673   1.082       .  S
C662        H674   1.082       .  S
C663        C664   1.373       .  A
C663        H675   1.082       .  S
C664        H676   1.082       .  S
C665       C2493   1.488       .  S
C666       C2471   1.509       .  S
C667       C2465   1.461       .  S
C668       C2533   1.454       .  S
N679        C684   1.357       .  A
N679        C683   1.354       .  A
N679        H711   1.043       .  S
N680        C687   1.352       .  A
N680        C688   1.352       .  A
N681        C686   1.352       .  A
N681        C685   1.354       .  A
N681        H712   1.040       .  S
N682        C689   1.353       .  A
N682        C690   1.352       .  A
C683        C691   1.385       .  A
C683        C699   1.418       .  A
C684        C700   1.427       .  A
C684        C692   1.388       .  A
C685        C693   1.388       .  A
C685        C702   1.417       .  A
C686        C701   1.414       .  A
C686        C694   1.386       .  A
C687        C699   1.414       .  A
C687        C695   1.388       .  A
C688        C702   1.413       .  A
C688        C696   1.386       .  A
C689        C697   1.388       .  A
C689        C700   1.420       .  A
C690        C698   1.385       .  A
C690        C701   1.410       .  A
C691        C692   1.380       .  A
C691        H703   1.080       .  S
C692        H704   1.082       .  S
C693        C694   1.384       .  A
C693        H705   1.082       .  S
C694        H706   1.082       .  S
C695        C696   1.371       .  A
C695        H707   1.081       .  S
C696        H708   1.082       .  S
C697        C698   1.374       .  A
C697        H709   1.082       .  S
C698        H710   1.082       .  S
C699       C2481   1.491       .  S
C700       C2503   1.521       .  S
C701       C2522   1.455       .  S
C702       C2558   1.458       .  S
N713        N714   1.325       .  A
N713        C717   1.354       .  A
N713       Cu721   2.124       .  S
N714        C715   1.345       .  A
N714       Cu720   2.064       .  S
C715        C716   1.376       .  A
C715        H718   1.082       .  S
C716        C717   1.391       .  A
C716       C2462   1.450       .  S
C717        H719   1.082       .  S
Cu720       N723   2.062       .  S
Cu721       N731   2.125       .  S
Cu722       N724   2.070       .  S
Cu722       N730   2.071       .  S
N723        N724   1.319       .  A
N723        C727   1.342       .  A
N724        C725   1.347       .  A
C725        C726   1.384       .  A
C725        H728   1.082       .  S
C726        C727   1.381       .  A
C726       C2463   1.435       .  S
C727        H729   1.082       .  S
N730        N731   1.325       .  A
N730        C734   1.343       .  A
N731        C732   1.356       .  A
C732        C733   1.392       .  A
C732        H735   1.082       .  S
C733        C734   1.376       .  A
C733       C2466   1.451       .  S
C734        H736   1.082       .  S
N737        N738   1.325       .  A
N737        C741   1.354       .  A
N737       Cu745   2.106       .  S
N738        C739   1.340       .  A
N738       Cu744   2.063       .  S
C739        C740   1.374       .  A
C739        H742   1.082       .  S
C740        C741   1.387       .  A
C740       C2459   1.442       .  S
C741        H743   1.082       .  S
Cu744       N747   2.059       .  S
Cu745       N755   2.107       .  S
Cu746       N748   2.059       .  S
Cu746       N754   2.061       .  S
N747        N748   1.318       .  A
N747        C751   1.342       .  A
N748        C749   1.343       .  A
C749        C750   1.383       .  A
C749        H752   1.083       .  S
C750        C751   1.383       .  A
C750       C2464   1.435       .  S
C751        H753   1.083       .  S
N754        N755   1.325       .  A
N754        C758   1.342       .  A
N755        C756   1.352       .  A
C756        C757   1.388       .  A
C756        H759   1.082       .  S
C757        C758   1.374       .  A
C757       C2488   1.443       .  S
C758        H760   1.082       .  S
N761        C765   1.358       .  A
N761        C762   1.360       .  A
N761       C2457   1.409       .  S
C762        C763   1.382       .  A
C762       C2455   1.457       .  S
C763        C764   1.379       .  A
C763        H766   1.082       .  S
C764        C765   1.379       .  A
C764        H767   1.082       .  S
C765       C2461   1.453       .  S
N768        C772   1.354       .  A
N768        C769   1.354       .  A
N768       C2458   1.410       .  S
C769        C770   1.379       .  A
C769       C2454   1.440       .  S
C770        C771   1.376       .  A
C770        H773   1.082       .  S
C771        C772   1.381       .  A
C771        H774   1.083       .  S
C772       C2460   1.444       .  S
N775        N776   1.326       .  A
N775        C779   1.359       .  A
N775       Cu783   2.139       .  S
N776        C777   1.343       .  A
N776       Cu782   2.066       .  S
C777        C778   1.375       .  A
C777        H780   1.082       .  S
C778        C779   1.395       .  A
C778       C2456   1.456       .  S
C779        H781   1.082       .  S
Cu782       N785   2.062       .  S
Cu783       N793   2.139       .  S
Cu784       N786   2.054       .  S
Cu784       N792   2.055       .  S
N785        N786   1.317       .  A
N785        C789   1.341       .  A
N786        C787   1.344       .  A
C787        C788   1.383       .  A
C787        H790   1.082       .  S
C788        C789   1.383       .  A
C788       C2451   1.434       .  S
C789        H791   1.083       .  S
N792        N793   1.326       .  A
N792        C796   1.341       .  A
N793        C794   1.358       .  A
C794        C795   1.395       .  A
C794        H797   1.082       .  S
C795        C796   1.372       .  A
C795       C2449   1.451       .  S
C796        H798   1.082       .  S
N799        N800   1.324       .  A
N799        C803   1.348       .  A
N799       Cu807   2.088       .  S
N800        C801   1.344       .  A
N800       Cu806   2.064       .  S
C801        C802   1.376       .  A
C801        H804   1.082       .  S
C802        C803   1.383       .  A
C802       C2453   1.437       .  S
C803        H805   1.082       .  S
Cu806       N809   2.063       .  S
Cu807       N817   2.088       .  S
Cu808       N810   2.063       .  S
Cu808       N816   2.063       .  S
N809        N810   1.319       .  A
N809        C813   1.341       .  A
N810        C811   1.347       .  A
C811        C812   1.384       .  A
C811        H814   1.082       .  S
C812        C813   1.381       .  A
C812       C2452   1.434       .  S
C813        H815   1.082       .  S
N816        N817   1.324       .  A
N816        C820   1.339       .  A
N817        C818   1.351       .  A
C818        C819   1.384       .  A
C818        H821   1.082       .  S
C819        C820   1.373       .  A
C819       C2447   1.433       .  S
C820        H822   1.082       .  S
N823        C828   1.352       .  A
N823        C827   1.354       .  A
N823        H855   1.032       .  S
N824        C831   1.356       .  A
N824        C832   1.353       .  A
N825        C830   1.359       .  A
N825        C829   1.354       .  A
N825        H856   1.036       .  S
N826        C833   1.351       .  A
N826        C834   1.353       .  A
C827        C835   1.387       .  A
C827        C843   1.418       .  A
C828        C844   1.418       .  A
C828        C836   1.388       .  A
C829        C837   1.388       .  A
C829        C846   1.421       .  A
C830        C845   1.423       .  A
C830        C838   1.387       .  A
C831        C843   1.419       .  A
C831        C839   1.385       .  A
C832        C846   1.419       .  A
C832        C840   1.389       .  A
C833        C841   1.387       .  A
C833        C844   1.416       .  A
C834        C842   1.387       .  A
C834        C845   1.415       .  A
C835        C836   1.374       .  A
C835        H847   1.082       .  S
C836        H848   1.082       .  S
C837        C838   1.380       .  A
C837        H849   1.082       .  S
C838        H850   1.082       .  S
C839        C840   1.372       .  A
C839        H851   1.082       .  S
C840        H852   1.082       .  S
C841        C842   1.371       .  A
C841        H853   1.082       .  S
C842        H854   1.082       .  S
C843       C2436   1.493       .  S
C844       C2426   1.478       .  S
C845       C2450   1.465       .  S
C846       C2445   1.454       .  S
N857        C862   1.352       .  A
N857        C861   1.351       .  A
N857        H889   1.043       .  S
N858        C865   1.350       .  A
N858        C866   1.350       .  A
N859        C864   1.354       .  A
N859        C863   1.356       .  A
N859        H890   1.041       .  S
N860        C867   1.355       .  A
N860        C868   1.351       .  A
C861        C869   1.385       .  A
C861        C877   1.409       .  A
C862        C878   1.420       .  A
C862        C870   1.389       .  A
C863        C871   1.386       .  A
C863        C880   1.418       .  A
C864        C879   1.419       .  A
C864        C872   1.388       .  A
C865        C877   1.409       .  A
C865        C873   1.386       .  A
C866        C880   1.410       .  A
C866        C874   1.388       .  A
C867        C875   1.389       .  A
C867        C878   1.423       .  A
C868        C876   1.384       .  A
C868        C879   1.410       .  A
C869        C870   1.378       .  A
C869        H881   1.081       .  S
C870        H882   1.082       .  S
C871        C872   1.384       .  A
C871        H883   1.082       .  S
C872        H884   1.082       .  S
C873        C874   1.372       .  A
C873        H885   1.082       .  S
C874        H886   1.082       .  S
C875        C876   1.377       .  A
C875        H887   1.081       .  S
C876        H888   1.082       .  S
C877       C2414   1.480       .  S
C878       C2404   1.514       .  S
C879       C2511   1.457       .  S
C880       C2423   1.458       .  S
N891        C896   1.353       .  A
N891        C895   1.356       .  A
N891        H923   1.042       .  S
N892        C899   1.353       .  A
N892        C900   1.351       .  A
N893        C898   1.355       .  A
N893        C897   1.355       .  A
N893        H924   1.039       .  S
N894        C901   1.353       .  A
N894        C902   1.352       .  A
C895        C903   1.390       .  A
C895        C911   1.425       .  A
C896        C912   1.412       .  A
C896        C904   1.383       .  A
C897        C905   1.387       .  A
C897        C914   1.418       .  A
C898        C913   1.419       .  A
C898        C906   1.388       .  A
C899        C911   1.419       .  A
C899        C907   1.388       .  A
C900        C914   1.411       .  A
C900        C908   1.386       .  A
C901        C909   1.385       .  A
C901        C912   1.412       .  A
C902        C910   1.389       .  A
C902        C913   1.416       .  A
C903        C904   1.379       .  A
C903        H915   1.081       .  S
C904        H916   1.082       .  S
C905        C906   1.384       .  A
C905        H917   1.082       .  S
C906        H918   1.082       .  S
C907        C908   1.373       .  A
C907        H919   1.082       .  S
C908        H920   1.082       .  S
C909        C910   1.372       .  A
C909        H921   1.082       .  S
C910        H922   1.082       .  S
C911       C2407   1.514       .  S
C912       C2439   1.488       .  S
C913       C2402   1.459       .  S
C914       C2510   1.458       .  S
N925        C930   1.352       .  A
N925        C929   1.352       .  A
N925        H957   1.034       .  S
N926        C933   1.351       .  A
N926        C934   1.351       .  A
N927        C932   1.355       .  A
N927        C931   1.354       .  A
N927        H958   1.036       .  S
N928        C935   1.353       .  A
N928        C936   1.352       .  A
C929        C937   1.387       .  A
C929        C945   1.415       .  A
C930        C946   1.417       .  A
C930        C938   1.388       .  A
C931        C939   1.388       .  A
C931        C948   1.417       .  A
C932        C947   1.418       .  A
C932        C940   1.388       .  A
C933        C945   1.413       .  A
C933        C941   1.386       .  A
C934        C948   1.414       .  A
C934        C942   1.388       .  A
C935        C943   1.387       .  A
C935        C946   1.417       .  A
C936        C944   1.387       .  A
C936        C947   1.415       .  A
C937        C938   1.373       .  A
C937        H949   1.082       .  S
C938        H950   1.081       .  S
C939        C940   1.375       .  A
C939        H951   1.082       .  S
C940        H952   1.082       .  S
C941        C942   1.371       .  A
C941        H953   1.082       .  S
C942        H954   1.082       .  S
C943        C944   1.372       .  A
C943        H955   1.082       .  S
C944        H956   1.082       .  S
C945       C2429   1.479       .  S
C946       C2417   1.483       .  S
C947       C2399   1.454       .  S
C948       C2448   1.450       .  S
N959        N960   1.325       .  A
N959        C963   1.348       .  A
N959       Cu967   2.100       .  S
N960        C961   1.351       .  A
N960       Cu966   2.091       .  S
C961        C962   1.384       .  A
C961        H964   1.082       .  S
C962        C963   1.383       .  A
C962       C2395   1.451       .  S
C963        H965   1.082       .  S
Cu966       N969   2.088       .  S
Cu967       N977   2.099       .  S
Cu968       N970   2.055       .  S
Cu968       N976   2.056       .  S
N969        N970   1.321       .  A
N969        C973   1.344       .  A
N970        C971   1.345       .  A
C971        C972   1.380       .  A
C971        H974   1.082       .  S
C972        C973   1.385       .  A
C972       C2398   1.435       .  S
C973        H975   1.082       .  S
N976        N977   1.323       .  A
N976        C980   1.341       .  A
N977        C978   1.352       .  A
C978        C979   1.387       .  A
C978        H981   1.082       .  S
C979        C980   1.375       .  A
C979       C2446   1.440       .  S
C980        H982   1.082       .  S
N983        N984   1.323       .  A
N983        C987   1.357       .  A
N983       Cu991   2.122       .  S
N984        C985   1.341       .  A
N984       Cu990   2.060       .  S
C985        C986   1.375       .  A
C985        H988   1.082       .  S
C986        C987   1.393       .  A
C986       C2394   1.449       .  S
C987        H989   1.082       .  S
Cu990       N993   2.055       .  S
Cu991      N1001   2.123       .  S
Cu992       N994   2.067       .  S
Cu992      N1000   2.068       .  S
N993        N994   1.317       .  A
N993        C997   1.339       .  A
N994        C995   1.347       .  A
C995        C996   1.387       .  A
C995        H998   1.082       .  S
C996        C997   1.380       .  A
C996       C2397   1.433       .  S
C997        H999   1.083       .  S
N1000      N1001   1.327       .  A
N1000      C1004   1.341       .  A
N1001      C1002   1.355       .  A
C1002      C1003   1.391       .  A
C1002      H1005   1.082       .  S
C1003      C1004   1.374       .  A
C1003      C2401   1.446       .  S
C1004      H1006   1.082       .  S
N1007      C1011   1.361       .  A
N1007      C1008   1.357       .  A
N1007      C2391   1.410       .  S
C1008      C1009   1.380       .  A
C1008      C2396   1.455       .  S
C1009      C1010   1.380       .  A
C1009      H1012   1.082       .  S
C1010      C1011   1.382       .  A
C1010      H1013   1.082       .  S
C1011      C2389   1.458       .  S
N1014      C1018   1.358       .  A
N1014      C1015   1.359       .  A
N1014      C2392   1.410       .  S
C1015      C1016   1.380       .  A
C1015      C2393   1.451       .  S
C1016      C1017   1.374       .  A
C1016      H1019   1.083       .  S
C1017      C1018   1.380       .  A
C1017      H1020   1.083       .  S
C1018      C2387   1.448       .  S
N1021      N1022   1.326       .  A
N1021      C1025   1.359       .  A
N1021     Cu1029   2.152       .  S
N1022      C1023   1.344       .  A
N1022     Cu1028   2.060       .  S
C1023      C1024   1.374       .  A
C1023      H1026   1.082       .  S
C1024      C1025   1.398       .  A
C1024      C2390   1.458       .  S
C1025      H1027   1.082       .  S
Cu1028     N1031   2.059       .  S
Cu1029     N1039   2.153       .  S
Cu1030     N1032   2.068       .  S
Cu1030     N1038   2.070       .  S
N1031      N1032   1.318       .  A
N1031      C1035   1.343       .  A
N1032      C1033   1.345       .  A
C1033      C1034   1.383       .  A
C1033      H1036   1.082       .  S
C1034      C1035   1.382       .  A
C1034      C2385   1.436       .  S
C1035      H1037   1.082       .  S
N1038      N1039   1.326       .  A
N1038      C1042   1.345       .  A
N1039      C1040   1.360       .  A
C1040      C1041   1.398       .  A
C1040      H1043   1.082       .  S
C1041      C1042   1.377       .  A
C1041      C2383   1.462       .  S
C1042      H1044   1.082       .  S
N1045      N1046   1.324       .  A
N1045      C1049   1.355       .  A
N1045     Cu1053   2.112       .  S
N1046      C1047   1.342       .  A
N1046     Cu1052   2.062       .  S
C1047      C1048   1.375       .  A
C1047      H1050   1.082       .  S
C1048      C1049   1.390       .  A
C1048      C2388   1.446       .  S
C1049      H1051   1.082       .  S
Cu1052     N1055   2.058       .  S
Cu1053     N1063   2.113       .  S
Cu1054     N1056   2.070       .  S
Cu1054     N1062   2.072       .  S
N1055      N1056   1.319       .  A
N1055      C1059   1.342       .  A
N1056      C1057   1.345       .  A
C1057      C1058   1.384       .  A
C1057      H1060   1.082       .  S
C1058      C1059   1.381       .  A
C1058      C2386   1.435       .  S
C1059      H1061   1.083       .  S
N1062      N1063   1.325       .  A
N1062      C1066   1.344       .  A
N1063      C1064   1.353       .  A
C1064      C1065   1.388       .  A
C1064      H1067   1.082       .  S
C1065      C1066   1.377       .  A
C1065      C2381   1.447       .  S
C1066      H1068   1.082       .  S
N1069      N1070   1.325       .  A
N1069      C1073   1.348       .  A
N1069     Cu1077   2.096       .  S
N1070      C1071   1.347       .  A
N1070     Cu1076   2.076       .  S
C1071      C1072   1.380       .  A
C1071      H1074   1.082       .  S
C1072      C1073   1.383       .  A
C1072      C2377   1.443       .  S
C1073      H1075   1.082       .  S
Cu1076     N1079   2.073       .  S
Cu1077     N1087   2.096       .  S
Cu1078     N1080   2.059       .  S
Cu1078     N1086   2.061       .  S
N1079      N1080   1.320       .  A
N1079      C1083   1.342       .  A
N1080      C1081   1.344       .  A
C1081      C1082   1.381       .  A
C1081      H1084   1.082       .  S
C1082      C1083   1.384       .  A
C1082      C2379   1.434       .  S
C1083      H1085   1.083       .  S
N1086      N1087   1.323       .  A
N1086      C1090   1.343       .  A
N1087      C1088   1.350       .  A
C1088      C1089   1.386       .  A
C1088      H1091   1.082       .  S
C1089      C1090   1.376       .  A
C1089      C2375   1.442       .  S
C1090      H1092   1.082       .  S
N1093      N1094   1.323       .  A
N1093      C1097   1.358       .  A
N1093     Cu1101   2.134       .  S
N1094      C1095   1.341       .  A
N1094     Cu1100   2.055       .  S
C1095      C1096   1.374       .  A
C1095      H1098   1.082       .  S
C1096      C1097   1.396       .  A
C1096      C2373   1.453       .  S
C1097      H1099   1.082       .  S
Cu1100     N1103   2.053       .  S
Cu1101     N1111   2.135       .  S
Cu1102     N1104   2.074       .  S
Cu1102     N1110   2.077       .  S
N1103      N1104   1.318       .  A
N1103      C1107   1.339       .  A
N1104      C1105   1.348       .  A
C1105      C1106   1.387       .  A
C1105      H1108   1.082       .  S
C1106      C1107   1.379       .  A
C1106      C2380   1.434       .  S
C1107      H1109   1.083       .  S
N1110      N1111   1.327       .  A
N1110      C1114   1.343       .  A
N1111      C1112   1.358       .  A
C1112      C1113   1.393       .  A
C1112      H1115   1.082       .  S
C1113      C1114   1.376       .  A
C1113      C2371   1.455       .  S
C1114      H1116   1.082       .  S
N1117      C1121   1.359       .  A
N1117      C1118   1.355       .  A
N1117      C2369   1.410       .  S
C1118      C1119   1.379       .  A
C1118      C2378   1.446   1_554  S
C1119      C1120   1.377       .  A
C1119      H1122   1.082   1_554  S
C1120      C1121   1.382       .  A
C1120      H1123   1.083       .  S
C1121      C2368   1.451       .  S
N1124      C1128   1.355       .  A
N1124      C1125   1.360       .  A
N1124      C2370   1.410       .  S
C1125      C1126   1.382       .  A
C1125      C2374   1.454   1_554  S
C1126      C1127   1.378       .  A
C1126      H1129   1.082       .  S
C1127      C1128   1.379       .  A
C1127      H1130   1.082       .  S
C1128      C2366   1.448       .  S
N1131      N1132   1.323       .  A
N1131      C1135   1.356       .  A
N1131     Cu1139   2.116       .  S
N1132      C1133   1.341       .  A
N1132     Cu1138   2.059       .  S
C1133      C1134   1.374       .  A
C1133      H1136   1.082       .  S
C1134      C1135   1.393       .  A
C1134      C2367   1.449       .  S
C1135      H1137   1.082       .  S
Cu1138     N1141   2.057       .  S
Cu1139     N1149   2.117       .  S
Cu1140     N1142   2.072       .  S
Cu1140     N1148   2.073       .  S
N1141      N1142   1.318       .  A
N1141      C1145   1.341       .  A
N1142      C1143   1.347       .  A
C1143      C1144   1.386       .  A
C1143      H1146   1.082       .  S
C1144      C1145   1.380       .  A
C1144      C2364   1.434       .  S
C1145      H1147   1.082       .  S
N1148      N1149   1.326       .  A
N1148      C1152   1.343       .  A
N1149      C1150   1.354       .  A
C1150      C1151   1.389       .  A
C1150      H1153   1.082       .  S
C1151      C1152   1.375       .  A
C1151      C2424   1.447       .  S
C1152      H1154   1.082       .  S
N1155      N1156   1.324       .  A
N1155      C1159   1.349       .  A
N1155     Cu1163   2.094       .  S
N1156      C1157   1.346       .  A
N1156     Cu1162   2.074       .  S
C1157      C1158   1.379       .  A
C1157      H1160   1.082       .  S
C1158      C1159   1.385       .  A
C1158      C2365   1.444       .  S
C1159      H1161   1.082       .  S
Cu1162     N1165   2.071       .  S
Cu1163     N1173   2.093       .  S
Cu1164     N1166   2.063       .  S
Cu1164     N1172   2.066       .  S
N1165      N1166   1.320       .  A
N1165      C1169   1.342       .  A
N1166      C1167   1.344       .  A
C1167      C1168   1.382       .  A
C1167      H1170   1.082       .  S
C1168      C1169   1.383       .  A
C1168      C2363   1.433       .  S
C1169      H1171   1.083       .  S
N1172      N1173   1.324       .  A
N1172      C1176   1.345       .  A
N1173      C1174   1.348       .  A
C1174      C1175   1.383       .  A
C1174      H1177   1.082       .  S
C1175      C1176   1.378       .  A
C1175      C2400   1.440       .  S
C1176      H1178   1.082       .  S
N1179      N1180   1.327       .  A
N1179      C1183   1.351       .  A
N1179     Cu1187   2.106       .  S
N1180      C1181   1.343       .  A
N1180     Cu1186   2.067       .  S
C1181      C1182   1.373       .  A
C1181      H1184   1.082       .  S
C1182      C1183   1.385       .  A
C1182      C2359   1.440       .  S
C1183      H1185   1.082       .  S
Cu1186     N1189   2.065       .  S
Cu1187     N1197   2.105       .  S
Cu1188     N1190   2.052       .  S
Cu1188     N1196   2.051       .  S
N1189      N1190   1.317       .  A
N1189      C1193   1.344       .  A
N1190      C1191   1.342       .  A
C1191      C1192   1.381       .  A
C1191      H1194   1.082       .  S
C1192      C1193   1.385       .  A
C1192      C2362   1.434       .  S
C1193      H1195   1.082       .  S
N1196      N1197   1.323       .  A
N1196      C1200   1.338       .  A
N1197      C1198   1.355       .  A
C1198      C1199   1.390       .  A
C1198      H1201   1.082       .  S
C1199      C1200   1.371       .  A
C1199      C2357   1.440       .  S
C1200      H1202   1.082       .  S
N1203      N1204   1.324       .  A
N1203      C1207   1.359       .  A
N1203     Cu1211   2.126       .  S
N1204      C1205   1.338       .  A
N1204     Cu1210   2.053       .  S
C1205      C1206   1.371       .  A
C1205      H1208   1.082       .  S
C1206      C1207   1.395       .  A
C1206      C2355   1.449       .  S
C1207      H1209   1.082       .  S
Cu1210     N1213   2.050       .  S
Cu1211     N1221   2.128       .  S
Cu1212     N1214   2.070       .  S
Cu1212     N1220   2.073       .  S
N1213      N1214   1.317       .  A
N1213      C1217   1.342       .  A
N1214      C1215   1.345       .  A
C1215      C1216   1.385       .  A
C1215      H1218   1.082       .  S
C1216      C1217   1.381       .  A
C1216      C2361   1.434       .  S
C1217      H1219   1.083       .  S
N1220      N1221   1.326       .  A
N1220      C1224   1.344       .  A
N1221      C1222   1.356       .  A
C1222      C1223   1.392       .  A
C1222      H1225   1.082       .  S
C1223      C1224   1.376       .  A
C1223      C2353   1.452       .  S
C1224      H1226   1.082       .  S
N1227      C1231   1.356       .  A
N1227      C1228   1.358   1_545  A
N1227      C2351   1.408       .  S
C1228      C1229   1.382   1_565  A
C1228      C2356   1.452       .  S
C1229      C1230   1.377       .  A
C1229      H1232   1.083   1_545  S
C1230      C1231   1.379       .  A
C1230      H1233   1.082       .  S
C1231      C2350   1.448       .  S
N1234      C1238   1.353       .  A
N1234      C1235   1.354       .  A
N1234      C2352   1.409       .  S
C1235      C1236   1.382       .  A
C1235      C2347   1.446       .  S
C1236      C1237   1.379       .  A
C1236      H1239   1.083       .  S
C1237      C1238   1.380       .  A
C1237      H1240   1.082       .  S
C1238      C2360   1.443   1_545  S
N1241      N1242   1.323       .  A
N1241      C1245   1.353       .  A
N1241     Cu1249   2.104       .  S
N1242      C1243   1.341       .  A
N1242     Cu1248   2.063       .  S
C1243      C1244   1.376       .  A
C1243      H1246   1.082       .  S
C1244      C1245   1.389       .  A
C1244      C2348   1.442       .  S
C1245      H1247   1.082       .  S
Cu1248     N1251   2.058       .  S
Cu1249     N1259   2.105       .  S
Cu1250     N1252   2.066       .  S
Cu1250     N1258   2.068       .  S
N1251      N1252   1.318       .  A
N1251      C1255   1.340       .  A
N1252      C1253   1.346       .  A
C1253      C1254   1.385       .  A
C1253      H1256   1.082       .  S
C1254      C1255   1.381       .  A
C1254      C2345   1.434       .  S
C1255      H1257   1.083       .  S
N1258      N1259   1.325       .  A
N1258      C1262   1.344       .  A
N1259      C1260   1.351       .  A
C1260      C1261   1.386       .  A
C1260      H1263   1.082       .  S
C1261      C1262   1.376       .  A
C1261      C2343   1.443       .  S
C1262      H1264   1.082       .  S
N1265      N1266   1.325       .  A
N1265      C1269   1.350       .  A
N1265     Cu1273   2.105       .  S
N1266      C1267   1.346       .  A
N1266     Cu1272   2.072       .  S
C1267      C1268   1.378       .  A
C1267      H1270   1.082       .  S
C1268      C1269   1.386       .  A
C1268      C2349   1.445       .  S
C1269      H1271   1.082       .  S
Cu1272     N1275   2.071       .  S
Cu1273     N1283   2.106       .  S
Cu1274     N1276   2.064       .  S
Cu1274     N1282   2.064       .  S
N1275      N1276   1.320       .  A
N1275      C1279   1.342       .  A
N1276      C1277   1.347       .  A
C1277      C1278   1.383       .  A
C1277      H1280   1.082       .  S
C1278      C1279   1.382       .  A
C1278      C2346   1.435       .  S
C1279      H1281   1.083       .  S
N1282      N1283   1.324       .  A
N1282      C1286   1.342       .  A
N1283      C1284   1.352       .  A
C1284      C1285   1.388       .  A
C1284      H1287   1.082       .  S
C1285      C1286   1.375       .  A
C1285      C2342   1.444       .  S
C1286      H1288   1.082       .  S
N1289      C1294   1.355       .  A
N1289      C1293   1.354       .  A
N1289      H1321   1.039       .  S
N1290      C1297   1.351       .  A
N1290      C1298   1.352       .  A
N1291      C1296   1.354       .  A
N1291      C1295   1.357       .  A
N1291      H1322   1.038       .  S
N1292      C1299   1.356       .  A
N1292      C1300   1.353       .  A
C1293      C1301   1.388       .  A
C1293      C1309   1.417       .  A
C1294      C1310   1.417       .  A
C1294      C1302   1.386       .  A
C1295      C1303   1.387       .  A
C1295      C1312   1.420       .  A
C1296      C1311   1.418       .  A
C1296      C1304   1.387       .  A
C1297      C1309   1.412       .  A
C1297      C1305   1.386       .  A
C1298      C1312   1.413       .  A
C1298      C1306   1.387       .  A
C1299      C1307   1.385       .  A
C1299      C1310   1.418       .  A
C1300      C1308   1.388       .  A
C1300      C1311   1.417       .  A
C1301      C1302   1.375       .  A
C1301      H1313   1.082       .  S
C1302      H1314   1.082       .  S
C1303      C1304   1.379       .  A
C1303      H1315   1.082       .  S
C1304      H1316   1.082       .  S
C1305      C1306   1.372       .  A
C1305      H1317   1.082       .  S
C1306      H1318   1.082       .  S
C1307      C1308   1.373       .  A
C1307      H1319   1.082       .  S
C1308      H1320   1.082       .  S
C1309      C2322   1.483       .  S
C1310      C2332   1.499       .  S
C1311      C2358   1.455       .  S
C1312      C2382   1.460       .  S
N1323      C1328   1.353       .  A
N1323      C1327   1.355       .  A
N1323      H1355   1.037       .  S
N1324      C1331   1.352       .  A
N1324      C1332   1.351       .  A
N1325      C1330   1.356       .  A
N1325      C1329   1.356       .  A
N1325      H1356   1.038       .  S
N1326      C1333   1.354       .  A
N1326      C1334   1.353       .  A
C1327      C1335   1.385       .  A
C1327      C1343   1.414       .  A
C1328      C1344   1.419       .  A
C1328      C1336   1.390       .  A
C1329      C1337   1.387       .  A
C1329      C1346   1.418       .  A
C1330      C1345   1.419       .  A
C1330      C1338   1.388       .  A
C1331      C1343   1.413       .  A
C1331      C1339   1.386       .  A
C1332      C1346   1.412       .  A
C1332      C1340   1.387       .  A
C1333      C1341   1.387       .  A
C1333      C1344   1.418       .  A
C1334      C1342   1.387       .  A
C1334      C1345   1.416       .  A
C1335      C1336   1.373       .  A
C1335      H1347   1.082       .  S
C1336      H1348   1.081       .  S
C1337      C1338   1.377       .  A
C1337      H1349   1.082       .  S
C1338      H1350   1.082       .  S
C1339      C1340   1.372       .  A
C1339      H1351   1.082       .  S
C1340      H1352   1.082       .  S
C1341      C1342   1.375       .  A
C1341      H1353   1.082       .  S
C1342      H1354   1.082       .  S
C1343      C2300   1.486       .  S
C1344      C2310   1.486       .  S
C1345      C2376   1.456       .  S
C1346      C2319   1.455       .  S
N1357      C1362   1.354       .  A
N1357      C1361   1.355       .  A
N1357      H1389   1.036       .  S
N1358      C1365   1.355       .  A
N1358      C1366   1.353       .  A
N1359      C1364   1.361       .  A
N1359      C1363   1.358       .  A
N1359      H1390   1.029       .  S
N1360      C1367   1.353       .  A
N1360      C1368   1.355       .  A
C1361      C1369   1.385       .  A
C1361      C1377   1.417       .  A
C1362      C1378   1.421       .  A
C1362      C1370   1.390       .  A
C1363      C1371   1.388       .  A
C1363      C1380   1.431       .  A
C1364      C1379   1.433       .  A
C1364      C1372   1.388       .  A
C1365      C1377   1.418       .  A
C1365      C1373   1.385       .  A
C1366      C1380   1.423       .  A
C1366      C1374   1.390       .  A
C1367      C1375   1.386       .  A
C1367      C1378   1.419       .  A
C1368      C1376   1.389       .  A
C1368      C1379   1.424       .  A
C1369      C1370   1.373       .  A
C1369      H1381   1.083       .  S
C1370      H1382   1.082       .  S
C1371      C1372   1.384       .  A
C1371      H1383   1.082       .  S
C1372      H1384   1.082       .  S
C1373      C1374   1.369       .  A
C1373      H1385   1.082       .  S
C1374      H1386   1.082       .  S
C1375      C1376   1.373       .  A
C1375      H1387   1.082       .  S
C1376      H1388   1.082       .  S
C1377      C2303   1.493       .  S
C1378      C2325   1.486       .  S
C1379      C2384   1.475       .  S
C1380      C2297   1.465       .  S
N1391      C1396   1.354       .  A
N1391      C1395   1.355       .  A
N1391      H1423   1.037       .  S
N1392      C1399   1.356       .  A
N1392      C1400   1.354       .  A
N1393      C1398   1.359       .  A
N1393      C1397   1.357       .  A
N1393      H1424   1.036       .  S
N1394      C1401   1.354       .  A
N1394      C1402   1.354       .  A
C1395      C1403   1.386       .  A
C1395      C1411   1.418       .  A
C1396      C1412   1.419       .  A
C1396      C1404   1.388       .  A
C1397      C1405   1.388       .  A
C1397      C1414   1.426       .  A
C1398      C1413   1.425       .  A
C1398      C1406   1.386       .  A
C1399      C1411   1.417       .  A
C1399      C1407   1.385       .  A
C1400      C1414   1.420       .  A
C1400      C1408   1.389       .  A
C1401      C1409   1.386       .  A
C1401      C1412   1.416       .  A
C1402      C1410   1.388       .  A
C1402      C1413   1.418       .  A
C1403      C1404   1.377       .  A
C1403      H1415   1.082       .  S
C1404      H1416   1.082       .  S
C1405      C1406   1.384       .  A
C1405      H1417   1.082       .  S
C1406      H1418   1.082       .  S
C1407      C1408   1.371       .  A
C1407      H1419   1.082       .  S
C1408      H1420   1.082       .  S
C1409      C1410   1.366       .  A
C1409      H1421   1.082       .  S
C1410      H1422   1.080       .  S
C1411      C2335   1.493       .  S
C1412      C2313   1.487       .  S
C1413      C2372   1.468       .  S
C1414      C2354   1.464       .  S
N1425      N1426   1.324       .  A
N1425      C1429   1.355       .  A
N1425     Cu1433   2.116       .  S
N1426      C1427   1.342       .  A
N1426     Cu1432   2.063       .  S
C1427      C1428   1.375       .  A
C1427      H1430   1.082       .  S
C1428      C1429   1.390       .  A
C1428      C2293   1.447       .  S
C1429      H1431   1.082       .  S
Cu1432     N1435   2.058       .  S
Cu1433     N1443   2.118       .  S
Cu1434     N1436   2.075       .  S
Cu1434     N1442   2.077       .  S
N1435      N1436   1.318       .  A
N1435      C1439   1.341       .  A
N1436      C1437   1.345       .  A
C1437      C1438   1.386       .  A
C1437      H1440   1.082       .  S
C1438      C1439   1.382       .  A
C1438      C2295   1.434       .  S
C1439      H1441   1.083       .  S
N1442      N1443   1.326       .  A
N1442      C1446   1.345       .  A
N1443      C1444   1.354       .  A
C1444      C1445   1.390       .  A
C1444      H1447   1.082       .  S
C1445      C1446   1.378       .  A
C1445      C2298   1.451       .  S
C1446      H1448   1.082       .  S
N1449      N1450   1.325       .  A
N1449      C1453   1.351       .  A
N1449     Cu1457   2.106       .  S
N1450      C1451   1.344       .  A
N1450     Cu1456   2.066       .  S
C1451      C1452   1.375       .  A
C1451      H1454   1.082       .  S
C1452      C1453   1.387       .  A
C1452      C2291   1.443       .  S
C1453      H1455   1.082       .  S
Cu1456     N1459   2.065       .  S
Cu1457     N1467   2.105       .  S
Cu1458     N1460   2.062       .  S
Cu1458     N1466   2.063       .  S
N1459      N1460   1.318       .  A
N1459      C1463   1.342       .  A
N1460      C1461   1.345       .  A
C1461      C1462   1.383       .  A
C1461      H1464   1.082       .  S
C1462      C1463   1.383       .  A
C1462      C2296   1.434       .  S
C1463      H1465   1.083       .  S
N1466      N1467   1.325       .  A
N1466      C1470   1.342       .  A
N1467      C1468   1.352       .  A
C1468      C1469   1.387       .  A
C1468      H1471   1.082       .  S
C1469      C1470   1.374       .  A
C1469      C2320   1.441       .  S
C1470      H1472   1.082       .  S
N1473      C1477   1.355       .  A
N1473      C1474   1.356       .  A
N1473      C2289   1.411       .  S
C1474      C1475   1.381       .  A
C1474      C2287   1.448       .  S
C1475      C1476   1.379       .  A
C1475      H1478   1.082       .  S
C1476      C1477   1.380       .  A
C1476      H1479   1.082       .  S
C1477      C2292   1.446       .  S
N1480      C1484   1.359       .  A
N1480      C1481   1.358       .  A
N1480      C2290   1.410       .  S
C1481      C1482   1.380       .  A
C1481      C2294   1.449       .  S
C1482      C1483   1.373       .  A
C1482      H1485   1.082       .  S
C1483      C1484   1.380       .  A
C1483      H1486   1.083       .  S
C1484      C2285   1.447       .  S
N1487      N1488   1.323       .  A
N1487      C1491   1.357       .  A
N1487     Cu1495   2.108       .  S
N1488      C1489   1.338       .  A
N1488     Cu1494   2.056       .  S
C1489      C1490   1.373       .  A
C1489      H1492   1.082       .  S
C1490      C1491   1.392       .  A
C1490      C2286   1.446       .  S
C1491      H1493   1.082       .  S
Cu1494     N1497   2.053       .  S
Cu1495     N1505   2.109       .  S
Cu1496     N1498   2.064       .  S
Cu1496     N1504   2.066       .  S
N1497      N1498   1.317       .  A
N1497      C1501   1.341       .  A
N1498      C1499   1.346       .  A
C1499      C1500   1.385       .  A
C1499      H1502   1.082       .  S
C1500      C1501   1.381       .  A
C1500      C2283   1.435       .  S
C1501      H1503   1.083       .  S
N1504      N1505   1.326       .  A
N1504      C1508   1.342       .  A
N1505      C1506   1.351       .  A
C1506      C1507   1.385       .  A
C1506      H1509   1.082       .  S
C1507      C1508   1.374       .  A
C1507      C2282   1.439       .  S
C1508      H1510   1.082       .  S
N1511      N1512   1.326       .  A
N1511      C1515   1.353       .  A
N1511     Cu1519   2.120       .  S
N1512      C1513   1.343       .  A
N1512     Cu1518   2.063       .  S
C1513      C1514   1.374       .  A
C1513      H1516   1.082       .  S
C1514      C1515   1.389       .  A
C1514      C2288   1.446       .  S
C1515      H1517   1.082       .  S
Cu1518     N1521   2.062       .  S
Cu1519     N1529   2.120       .  S
Cu1520     N1522   2.062       .  S
Cu1520     N1528   2.063       .  S
N1521      N1522   1.318       .  A
N1521      C1525   1.343       .  A
N1522      C1523   1.345       .  A
C1523      C1524   1.382       .  A
C1523      H1526   1.082       .  S
C1524      C1525   1.383       .  A
C1524      C2284   1.435       .  S
C1525      H1527   1.082       .  S
N1528      N1529   1.325       .  A
N1528      C1532   1.342       .  A
N1529      C1530   1.355       .  A
C1530      C1531   1.392       .  A
C1530      H1533   1.082       .  S
C1531      C1532   1.374       .  A
C1531      C2279   1.449       .  S
C1532      H1534   1.082       .  S
N1535      C1540   1.356       .  A
N1535      C1539   1.353       .  A
N1535      H1567   1.037       .  S
N1536      C1543   1.351       .  A
N1536      C1544   1.353       .  A
N1537      C1542   1.353       .  A
N1537      C1541   1.355       .  A
N1537      H1568   1.035       .  S
N1538      C1545   1.355       .  A
N1538      C1546   1.353       .  A
C1539      C1547   1.387       .  A
C1539      C1555   1.418       .  A
C1540      C1556   1.420       .  A
C1540      C1548   1.387       .  A
C1541      C1549   1.387       .  A
C1541      C1558   1.415       .  A
C1542      C1557   1.417       .  A
C1542      C1550   1.388       .  A
C1543      C1555   1.415       .  A
C1543      C1551   1.388       .  A
C1544      C1558   1.414       .  A
C1544      C1552   1.387       .  A
C1545      C1553   1.385       .  A
C1545      C1556   1.417       .  A
C1546      C1554   1.388       .  A
C1546      C1557   1.418       .  A
C1547      C1548   1.377       .  A
C1547      H1559   1.082       .  S
C1548      H1560   1.082       .  S
C1549      C1550   1.378       .  A
C1549      H1561   1.082       .  S
C1550      H1562   1.082       .  S
C1551      C1552   1.371       .  A
C1551      H1563   1.082       .  S
C1552      H1564   1.082       .  S
C1553      C1554   1.372       .  A
C1553      H1565   1.082       .  S
C1554      H1566   1.082       .  S
C1555      C2268   1.483       .  S
C1556      C2258   1.495       .  S
C1557      C2281   1.453       .  S
C1558      C2278   1.455       .  S
N1569      C1574   1.356       .  A
N1569      C1573   1.352       .  A
N1569      H1601   1.042       .  S
N1570      C1577   1.349       .  A
N1570      C1578   1.351       .  A
N1571      C1576   1.351       .  A
N1571      C1575   1.355       .  A
N1571      H1602   1.039       .  S
N1572      C1579   1.356       .  A
N1572      C1580   1.353       .  A
C1573      C1581   1.384       .  A
C1573      C1589   1.413       .  A
C1574      C1590   1.424       .  A
C1574      C1582   1.389       .  A
C1575      C1583   1.387       .  A
C1575      C1592   1.415       .  A
C1576      C1591   1.413       .  A
C1576      C1584   1.388       .  A
C1577      C1589   1.409       .  A
C1577      C1585   1.387       .  A
C1578      C1592   1.410       .  A
C1578      C1586   1.387       .  A
C1579      C1587   1.389       .  A
C1579      C1590   1.424       .  A
C1580      C1588   1.385       .  A
C1580      C1591   1.412       .  A
C1581      C1582   1.380       .  A
C1581      H1593   1.082       .  S
C1582      H1594   1.082       .  S
C1583      C1584   1.382       .  A
C1583      H1595   1.082       .  S
C1584      H1596   1.082       .  S
C1585      C1586   1.370       .  A
C1585      H1597   1.082       .  S
C1586      H1598   1.082       .  S
C1587      C1588   1.372       .  A
C1587      H1599   1.081       .  S
C1588      H1600   1.082       .  S
C1589      C2236   1.478       .  S
C1590      C2246   1.519       .  S
C1591      C2255   1.451       .  S
C1592      C2344   1.455       .  S
N1603      C1608   1.355       .  A
N1603      C1607   1.356       .  A
N1603      H1635   1.043       .  S
N1604      C1611   1.354       .  A
N1604      C1612   1.352       .  A
N1605      C1610   1.356       .  A
N1605      C1609   1.359       .  A
N1605      H1636   1.040       .  S
N1606      C1613   1.355       .  A
N1606      C1614   1.353       .  A
C1607      C1615   1.389       .  A
C1607      C1623   1.426       .  A
C1608      C1624   1.414       .  A
C1608      C1616   1.384       .  A
C1609      C1617   1.387       .  A
C1609      C1626   1.423       .  A
C1610      C1625   1.423       .  A
C1610      C1618   1.388       .  A
C1611      C1623   1.422       .  A
C1611      C1619   1.388       .  A
C1612      C1626   1.411       .  A
C1612      C1620   1.384       .  A
C1613      C1621   1.385       .  A
C1613      C1624   1.415       .  A
C1614      C1622   1.389       .  A
C1614      C1625   1.419       .  A
C1615      C1616   1.375       .  A
C1615      H1627   1.081       .  S
C1616      H1628   1.081       .  S
C1617      C1618   1.383       .  A
C1617      H1629   1.082       .  S
C1618      H1630   1.082       .  S
C1619      C1620   1.377       .  A
C1619      H1631   1.082       .  S
C1620      H1632   1.082       .  S
C1621      C1622   1.375       .  A
C1621      H1633   1.082       .  S
C1622      H1634   1.082       .  S
C1623      C2249   1.519       .  S
C1624      C2261   1.495       .  S
C1625      C2280   1.462       .  S
C1626      C2234   1.467       .  S
N1637      C1642   1.351       .  A
N1637      C1641   1.352       .  A
N1637      H1669   1.037       .  S
N1638      C1645   1.353       .  A
N1638      C1646   1.352       .  A
N1639      C1644   1.355       .  A
N1639      C1643   1.356       .  A
N1639      H1670   1.033       .  S
N1640      C1647   1.354       .  A
N1640      C1648   1.353       .  A
C1641      C1649   1.386       .  A
C1641      C1657   1.411       .  A
C1642      C1658   1.412       .  A
C1642      C1650   1.388       .  A
C1643      C1651   1.387       .  A
C1643      C1660   1.422       .  A
C1644      C1659   1.422       .  A
C1644      C1652   1.388       .  A
C1645      C1657   1.413       .  A
C1645      C1653   1.385       .  A
C1646      C1660   1.417       .  A
C1646      C1654   1.389       .  A
C1647      C1655   1.385       .  A
C1647      C1658   1.416       .  A
C1648      C1656   1.389       .  A
C1648      C1659   1.419       .  A
C1649      C1650   1.371       .  A
C1649      H1661   1.082       .  S
C1650      H1662   1.083       .  S
C1651      C1652   1.380       .  A
C1651      H1663   1.082       .  S
C1652      H1664   1.082       .  S
C1653      C1654   1.370       .  A
C1653      H1665   1.082       .  S
C1654      H1666   1.082       .  S
C1655      C1656   1.374       .  A
C1655      H1667   1.082       .  S
C1656      H1668   1.082       .  S
C1657      C2271   1.486       .  S
C1658      C2239   1.485       .  S
C1659      C2341   1.458       .  S
C1660      C2231   1.456       .  S
N1671      N1672   1.324       .  A
N1671      C1675   1.353       .  A
N1671     Cu1679   2.103       .  S
N1672      C1673   1.343       .  A
N1672     Cu1678   2.066       .  S
C1673      C1674   1.376       .  A
C1673      H1676   1.082       .  S
C1674      C1675   1.388       .  A
C1674      C2227   1.445       .  S
C1675      H1677   1.082       .  S
Cu1678     N1681   2.061       .  S
Cu1679     N1689   2.103       .  S
Cu1680     N1682   2.063       .  S
Cu1680     N1688   2.064       .  S
N1681      N1682   1.318       .  A
N1681      C1685   1.340       .  A
N1682      C1683   1.345       .  A
C1683      C1684   1.385       .  A
C1683      H1686   1.082       .  S
C1684      C1685   1.381       .  A
C1684      C2229   1.432       .  S
C1685      H1687   1.083       .  S
N1688      N1689   1.325       .  A
N1688      C1692   1.340       .  A
N1689      C1690   1.352       .  A
C1690      C1691   1.386       .  A
C1690      H1693   1.082       .  S
C1691      C1692   1.373       .  A
C1691      C2225   1.438       .  S
C1692      H1694   1.082       .  S
N1695      N1696   1.326       .  A
N1695      C1699   1.356       .  A
N1695     Cu1703   2.135       .  S
N1696      C1697   1.345       .  A
N1696     Cu1702   2.067       .  S
C1697      C1698   1.375       .  A
C1697      H1700   1.082       .  S
C1698      C1699   1.394       .  A
C1698      C2223   1.454       .  S
C1699      H1701   1.082       .  S
Cu1702     N1705   2.067       .  S
Cu1703     N1713   2.135       .  S
Cu1704     N1706   2.054       .  S
Cu1704     N1712   2.054       .  S
N1705      N1706   1.318       .  A
N1705      C1709   1.342       .  A
N1706      C1707   1.345       .  A
C1707      C1708   1.381       .  A
C1707      H1710   1.082       .  S
C1708      C1709   1.383       .  A
C1708      C2230   1.434       .  S
C1709      H1711   1.083       .  S
N1712      N1713   1.325       .  A
N1712      C1716   1.341       .  A
N1713      C1714   1.357       .  A
C1714      C1715   1.394       .  A
C1714      H1717   1.082       .  S
C1715      C1716   1.372       .  A
C1715      C2221   1.450       .  S
C1716      H1718   1.082       .  S
N1719      C1723   1.357   1_554  A
N1719      C1720   1.360       .  A
N1719      C2219   1.409       .  S
C1720      C1721   1.381       .  A
C1720      C2217   1.453       .  S
C1721      C1722   1.376   1_554  A
C1721      H1724   1.083       .  S
C1722      C1723   1.379       .  A
C1722      H1725   1.082       .  S
C1723      C2228   1.448       .  S
N1726      C1730   1.355       .  A
N1726      C1727   1.360   1_554  A
N1726      C2220   1.410       .  S
C1727      C1728   1.382   1_556  A
C1727      C2224   1.455       .  S
C1728      C1729   1.381       .  A
C1728      H1731   1.082   1_554  S
C1729      C1730   1.380       .  A
C1729      H1732   1.082       .  S
C1730      C2216   1.451       .  S
N1733      N1734   1.323       .  A
N1733      C1737   1.358       .  A
N1733     Cu1741   2.124       .  S
N1734      C1735   1.341       .  A
N1734     Cu1740   2.063       .  S
C1735      C1736   1.375       .  A
C1735      H1738   1.082       .  S
C1736      C1737   1.394       .  A
C1736      C2218   1.452       .  S
C1737      H1739   1.082       .  S
Cu1740     N1743   2.057       .  S
Cu1741     N1751   2.126       .  S
Cu1742     N1744   2.071       .  S
Cu1742     N1750   2.073       .  S
N1743      N1744   1.318       .  A
N1743      C1747   1.340       .  A
N1744      C1745   1.347       .  A
C1745      C1746   1.387       .  A
C1745      H1748   1.082       .  S
C1746      C1747   1.381       .  A
C1746      C2213   1.434       .  S
C1747      H1749   1.083       .  S
N1750      N1751   1.327       .  A
N1750      C1754   1.344       .  A
N1751      C1752   1.354       .  A
C1752      C1753   1.390       .  A
C1752      H1755   1.082       .  S
C1753      C1754   1.376       .  A
C1753      C2593   1.450       .  S
C1754      H1756   1.082       .  S
N1757      N1758   1.325       .  A
N1757      C1761   1.349       .  A
N1757     Cu1765   2.100       .  S
N1758      C1759   1.348       .  A
N1758     Cu1764   2.081       .  S
C1759      C1760   1.381       .  A
C1759      H1762   1.082       .  S
C1760      C1761   1.384       .  A
C1760      C2215   1.447       .  S
C1761      H1763   1.082       .  S
Cu1764     N1767   2.080       .  S
Cu1765     N1775   2.100       .  S
Cu1766     N1768   2.058       .  S
Cu1766     N1774   2.059       .  S
N1767      N1768   1.320       .  A
N1767      C1771   1.343       .  A
N1768      C1769   1.345       .  A
C1769      C1770   1.381       .  A
C1769      H1772   1.082       .  S
C1770      C1771   1.384       .  A
C1770      C2214   1.435       .  S
C1771      H1773   1.083       .  S
N1774      N1775   1.324       .  A
N1774      C1778   1.343       .  A
N1775      C1776   1.351       .  A
C1776      C1777   1.386       .  A
C1776      H1779   1.082       .  S
C1777      C1778   1.375       .  A
C1777      C2569   1.441       .  S
C1778      H1780   1.082       .  S
N1781      N1782   1.324       .  A
N1781      C1785   1.351       .  A
N1781     Cu1789   2.092       .  S
N1782      C1783   1.341       .  A
N1782     Cu1788   2.065       .  S
C1783      C1784   1.375       .  A
C1783      H1786   1.082       .  S
C1784      C1785   1.385       .  A
C1784      C2209   1.439       .  S
C1785      H1787   1.082       .  S
Cu1788     N1791   2.061       .  S
Cu1789     N1799   2.094       .  S
Cu1790     N1792   2.069       .  S
Cu1790     N1798   2.071       .  S
N1791      N1792   1.319       .  A
N1791      C1795   1.341       .  A
N1792      C1793   1.345       .  A
C1793      C1794   1.385       .  A
C1793      H1796   1.082       .  S
C1794      C1795   1.382       .  A
C1794      C2211   1.434       .  S
C1795      H1797   1.083       .  S
N1798      N1799   1.325       .  A
N1798      C1802   1.343       .  A
N1799      C1800   1.350       .  A
C1800      C1801   1.384       .  A
C1800      H1803   1.082       .  S
C1801      C1802   1.376       .  A
C1801      C2277   1.441       .  S
C1802      H1804   1.082       .  S
N1805      N1806   1.324       .  A
N1805      C1809   1.351       .  A
N1805     Cu1813   2.105       .  S
N1806      C1807   1.344       .  A
N1806     Cu1812   2.067       .  S
C1807      C1808   1.376       .  A
C1807      H1810   1.082       .  S
C1808      C1809   1.387       .  A
C1808      C2207   1.444       .  S
C1809      H1811   1.082       .  S
Cu1812     N1815   2.065       .  S
Cu1813     N1823   2.105       .  S
Cu1814     N1816   2.065       .  S
Cu1814     N1822   2.066       .  S
N1815      N1816   1.319       .  A
N1815      C1819   1.341       .  A
N1816      C1817   1.346       .  A
C1817      C1818   1.384       .  A
C1817      H1820   1.082       .  S
C1818      C1819   1.382       .  A
C1818      C2212   1.434       .  S
C1819      H1821   1.083       .  S
N1822      N1823   1.325       .  A
N1822      C1826   1.342       .  A
N1823      C1824   1.352       .  A
C1824      C1825   1.387       .  A
C1824      H1827   1.082       .  S
C1825      C1826   1.375       .  A
C1825      C2232   1.442       .  S
C1826      H1828   1.082       .  S
N1829      C1833   1.354       .  A
N1829      C1830   1.352       .  A
N1829      C2205   1.407       .  S
C1830      C1831   1.380       .  A
C1830      C2203   1.440       .  S
C1831      C1832   1.374       .  A
C1831      H1834   1.083       .  S
C1832      C1833   1.380       .  A
C1832      H1835   1.083       .  S
C1833      C2210   1.440       .  S
N1836      C1840   1.355       .  A
N1836      C1837   1.354       .  A
N1836      C2206   1.408       .  S
C1837      C1838   1.381       .  A
C1837      C2208   1.448       .  S
C1838      C1839   1.381       .  A
C1838      H1841   1.082       .  S
C1839      C1840   1.381       .  A
C1839      H1842   1.082       .  S
C1840      C2202   1.449       .  S
N1843      N1844   1.322       .  A
N1843      C1847   1.353       .  A
N1843     Cu1851   2.086       .  S
N1844      C1845   1.337       .  A
N1844     Cu1850   2.052       .  S
C1845      C1846   1.372       .  A
C1845      H1848   1.082       .  S
C1846      C1847   1.387       .  A
C1846      C2204   1.435       .  S
C1847      H1849   1.082       .  S
Cu1850     N1853   2.050       .  S
Cu1851     N1861   2.089       .  S
Cu1852     N1854   2.078       .  S
Cu1852     N1860   2.080       .  S
N1853      N1854   1.318       .  A
N1853      C1857   1.341       .  A
N1854      C1855   1.347       .  A
C1855      C1856   1.387       .  A
C1855      H1858   1.082       .  S
C1856      C1857   1.380       .  A
C1856      C2199   1.435       .  S
C1857      H1859   1.083       .  S
N1860      N1861   1.326       .  A
N1860      C1864   1.344       .  A
N1861      C1862   1.348       .  A
C1862      C1863   1.381       .  A
C1862      H1865   1.082       .  S
C1863      C1864   1.378       .  A
C1863      C2197   1.439       .  S
C1864      H1866   1.082       .  S
N1867      N1868   1.325       .  A
N1867      C1871   1.352       .  A
N1867     Cu1875   2.112       .  S
N1868      C1869   1.344       .  A
N1868     Cu1874   2.068       .  S
C1869      C1870   1.376       .  A
C1869      H1872   1.082       .  S
C1870      C1871   1.388       .  A
C1870      C2201   1.446       .  S
C1871      H1873   1.082       .  S
Cu1874     N1877   2.066       .  S
Cu1875     N1885   2.112       .  S
Cu1876     N1878   2.060       .  S
Cu1876     N1884   2.063       .  S
N1877      N1878   1.319       .  A
N1877      C1881   1.343       .  A
N1878      C1879   1.343       .  A
C1879      C1880   1.382       .  A
C1879      H1882   1.082       .  S
C1880      C1881   1.384       .  A
C1880      C2200   1.435       .  S
C1881      H1883   1.083       .  S
N1884      N1885   1.325       .  A
N1884      C1888   1.343       .  A
N1885      C1886   1.353       .  A
C1886      C1887   1.389       .  A
C1886      H1889   1.082       .  S
C1887      C1888   1.375       .  A
C1887      C2195   1.445       .  S
C1888      H1890   1.082       .  S
N1891      N1892   1.324       .  A
N1891      C1895   1.357       .  A
N1891     Cu1899   2.117       .  S
N1892      C1893   1.341       .  A
N1892     Cu1898   2.062       .  S
C1893      C1894   1.375       .  A
C1893      H1896   1.082       .  S
C1894      C1895   1.392       .  A
C1894      C2191   1.448       .  S
C1895      H1897   1.082       .  S
Cu1898     N1901   2.057       .  S
Cu1899     N1909   2.118       .  S
Cu1900     N1902   2.071       .  S
Cu1900     N1908   2.073       .  S
N1901      N1902   1.318       .  A
N1901      C1905   1.341       .  A
N1902      C1903   1.346       .  A
C1903      C1904   1.386       .  A
C1903      H1906   1.082       .  S
C1904      C1905   1.381       .  A
C1904      C2193   1.435       .  S
C1905      H1907   1.083       .  S
N1908      N1909   1.326       .  A
N1908      C1912   1.344       .  A
N1909      C1910   1.353       .  A
C1910      C1911   1.389       .  A
C1910      H1913   1.082       .  S
C1911      C1912   1.377       .  A
C1911      C2189   1.449       .  S
C1912      H1914   1.082       .  S
N1915      N1916   1.324       .  A
N1915      C1919   1.351       .  A
N1915     Cu1923   2.105       .  S
N1916      C1917   1.347       .  A
N1916     Cu1922   2.076       .  S
C1917      C1918   1.380       .  A
C1917      H1920   1.082       .  S
C1918      C1919   1.387       .  A
C1918      C2187   1.449       .  S
C1919      H1921   1.082       .  S
Cu1922     N1925   2.074       .  S
Cu1923     N1933   2.105       .  S
Cu1924     N1926   2.068       .  S
Cu1924     N1932   2.070       .  S
N1925      N1926   1.321       .  A
N1925      C1929   1.343       .  A
N1926      C1927   1.346       .  A
C1927      C1928   1.382       .  A
C1927      H1930   1.082       .  S
C1928      C1929   1.383       .  A
C1928      C2194   1.436       .  S
C1929      H1931   1.082       .  S
N1932      N1933   1.324       .  A
N1932      C1936   1.345       .  A
N1933      C1934   1.351       .  A
C1934      C1935   1.386       .  A
C1934      H1937   1.082       .  S
C1935      C1936   1.378       .  A
C1935      C2185   1.446       .  S
C1936      H1938   1.082       .  S
N1939      C1943   1.357   1_455  A
N1939      C1940   1.354       .  A
N1939      C2183   1.409       .  S
C1940      C1941   1.379       .  A
C1940      C2181   1.443       .  S
C1941      C1942   1.376   1_455  A
C1941      H1944   1.082       .  S
C1942      C1943   1.382       .  A
C1942      H1945   1.083       .  S
C1943      C2192   1.450       .  S
N1946      C1950   1.361       .  A
N1946      C1947   1.356   1_455  A
N1946      C2184   1.409       .  S
C1947      C1948   1.380       .  A
C1947      C2188   1.453       .  S
C1948      C1949   1.381   1_655  A
C1948      H1951   1.082       .  S
C1949      C1950   1.382       .  A
C1949      H1952   1.082       .  S
C1950      C2179   1.458       .  S
N1953      N1954   1.323       .  A
N1953      C1957   1.352       .  A
N1953     Cu1961   2.097       .  S
N1954      C1955   1.340       .  A
N1954     Cu1960   2.060       .  S
C1955      C1956   1.374       .  A
C1955      H1958   1.082       .  S
C1956      C1957   1.387       .  A
C1956      C2182   1.439       .  S
C1957      H1959   1.082       .  S
Cu1960     N1963   2.057       .  S
Cu1961     N1971   2.098       .  S
Cu1962     N1964   2.065       .  S
Cu1962     N1970   2.067       .  S
N1963      N1964   1.317       .  A
N1963      C1967   1.340       .  A
N1964      C1965   1.345       .  A
C1965      C1966   1.386       .  A
C1965      H1968   1.082       .  S
C1966      C1967   1.382       .  A
C1966      C2177   1.432       .  S
C1967      H1969   1.083       .  S
N1970      N1971   1.326       .  A
N1970      C1974   1.341       .  A
N1971      C1972   1.351       .  A
C1972      C1973   1.385       .  A
C1972      H1975   1.082       .  S
C1973      C1974   1.374       .  A
C1973      C2256   1.438       .  S
C1974      H1976   1.082       .  S
N1977      N1978   1.326       .  A
N1977      C1981   1.358       .  A
N1977     Cu1985   2.147       .  S
N1978      C1979   1.345       .  A
N1978     Cu1984   2.064       .  S
C1979      C1980   1.375       .  A
C1979      H1982   1.082       .  S
C1980      C1981   1.397       .  A
C1980      C2180   1.457       .  S
C1981      H1983   1.082       .  S
Cu1984     N1987   2.064       .  S
Cu1985     N1995   2.147       .  S
Cu1986     N1988   2.059       .  S
Cu1986     N1994   2.060       .  S
N1987      N1988   1.317       .  A
N1987      C1991   1.341       .  A
N1988      C1989   1.346       .  A
C1989      C1990   1.383       .  A
C1989      H1992   1.082       .  S
C1990      C1991   1.383       .  A
C1990      C2178   1.433       .  S
C1991      H1993   1.083       .  S
N1994      N1995   1.326       .  A
N1994      C1998   1.342       .  A
N1995      C1996   1.359       .  A
C1996      C1997   1.397       .  A
C1996      H1999   1.082       .  S
C1997      C1998   1.373       .  A
C1997      C2233   1.456       .  S
C1998      H2000   1.082       .  S
N2001      C2006   1.351       .  A
N2001      C2005   1.353       .  A
N2001      H2033   1.038       .  S
N2002      C2009   1.352       .  A
N2002      C2010   1.350       .  A
N2003      C2008   1.356       .  A
N2003      C2007   1.355       .  A
N2003      H2034   1.039       .  S
N2004      C2011   1.351       .  A
N2004      C2012   1.353       .  A
C2005      C2013   1.387       .  A
C2005      C2021   1.415       .  A
C2006      C2022   1.412       .  A
C2006      C2014   1.387       .  A
C2007      C2015   1.387       .  A
C2007      C2024   1.417       .  A
C2008      C2023   1.416       .  A
C2008      C2016   1.386       .  A
C2009      C2021   1.412       .  A
C2009      C2017   1.385       .  A
C2010      C2024   1.412       .  A
C2010      C2018   1.388       .  A
C2011      C2019   1.388       .  A
C2011      C2022   1.414       .  A
C2012      C2020   1.386       .  A
C2012      C2023   1.412       .  A
C2013      C2014   1.376       .  A
C2013      H2025   1.082       .  S
C2014      H2026   1.082       .  S
C2015      C2016   1.379       .  A
C2015      H2027   1.082       .  S
C2016      H2028   1.082       .  S
C2017      C2018   1.372       .  A
C2017      H2029   1.082       .  S
C2018      H2030   1.082       .  S
C2019      C2020   1.372       .  A
C2019      H2031   1.082       .  S
C2020      H2032   1.082       .  S
C2021      C2168   1.486       .  S
C2022      C2158   1.477       .  S
C2023      C2196   1.458       .  S
C2024      C2226   1.452       .  S
N2035      C2040   1.355       .  A
N2035      C2039   1.355       .  A
N2035      H2067   1.036       .  S
N2036      C2043   1.356       .  A
N2036      C2044   1.355       .  A
N2037      C2042   1.358       .  A
N2037      C2041   1.356       .  A
N2037      H2068   1.034       .  S
N2038      C2045   1.353       .  A
N2038      C2046   1.353       .  A
C2039      C2047   1.388       .  A
C2039      C2055   1.420       .  A
C2040      C2056   1.419       .  A
C2040      C2048   1.387       .  A
C2041      C2049   1.388       .  A
C2041      C2058   1.425       .  A
C2042      C2057   1.424       .  A
C2042      C2050   1.387       .  A
C2043      C2055   1.420       .  A
C2043      C2051   1.386       .  A
C2044      C2058   1.421       .  A
C2044      C2052   1.388       .  A
C2045      C2053   1.385       .  A
C2045      C2056   1.413       .  A
C2046      C2054   1.389       .  A
C2046      C2057   1.418       .  A
C2047      C2048   1.377       .  A
C2047      H2059   1.082       .  S
C2048      H2060   1.082       .  S
C2049      C2050   1.382       .  A
C2049      H2061   1.082       .  S
C2050      H2062   1.082       .  S
C2051      C2052   1.370       .  A
C2051      H2063   1.082       .  S
C2052      H2064   1.082       .  S
C2053      C2054   1.367       .  A
C2053      H2065   1.083       .  S
C2054      H2066   1.082       .  S
C2055      C2148   1.493       .  S
C2056      C2138   1.486       .  S
C2057      C2632   1.463       .  S
C2058      C2190   1.462       .  S
N2069      C2074   1.353       .  A
N2069      C2073   1.352       .  A
N2069      H2101   1.033       .  S
N2070      C2077   1.351       .  A
N2070      C2078   1.351       .  A
N2071      C2076   1.353       .  A
N2071      C2075   1.355       .  A
N2071      H2102   1.032       .  S
N2072      C2079   1.355       .  A
N2072      C2080   1.353       .  A
C2073      C2081   1.386       .  A
C2073      C2089   1.414       .  A
C2074      C2090   1.418       .  A
C2074      C2082   1.389       .  A
C2075      C2083   1.387       .  A
C2075      C2092   1.419       .  A
C2076      C2091   1.420       .  A
C2076      C2084   1.389       .  A
C2077      C2089   1.413       .  A
C2077      C2085   1.386       .  A
C2078      C2092   1.415       .  A
C2078      C2086   1.388       .  A
C2079      C2087   1.385       .  A
C2079      C2090   1.419       .  A
C2080      C2088   1.389       .  A
C2080      C2091   1.421       .  A
C2081      C2082   1.370       .  A
C2081      H2093   1.082       .  S
C2082      H2094   1.081       .  S
C2083      C2084   1.377       .  A
C2083      H2095   1.082       .  S
C2084      H2096   1.082       .  S
C2085      C2086   1.369       .  A
C2085      H2097   1.082       .  S
C2086      H2098   1.082       .  S
C2087      C2088   1.374       .  A
C2087      H2099   1.082       .  S
C2088      H2100   1.082       .  S
C2089      C2161   1.477       .  S
C2090      C2141   1.487       .  S
C2091      C2635   1.452       .  S
C2092      C2198   1.453       .  S
N2103      C2108   1.356       .  A
N2103      C2107   1.353       .  A
N2103      H2135   1.038       .  S
N2104      C2111   1.355       .  A
N2104      C2112   1.355       .  A
N2105      C2110   1.357       .  A
N2105      C2109   1.357       .  A
N2105      H2136   1.036       .  S
N2106      C2113   1.354       .  A
N2106      C2114   1.353       .  A
C2107      C2115   1.388       .  A
C2107      C2123   1.418       .  A
C2108      C2124   1.416       .  A
C2108      C2116   1.386       .  A
C2109      C2117   1.387       .  A
C2109      C2126   1.422       .  A
C2110      C2125   1.422       .  A
C2110      C2118   1.388       .  A
C2111      C2123   1.418       .  A
C2111      C2119   1.386       .  A
C2112      C2126   1.417       .  A
C2112      C2120   1.387       .  A
C2113      C2121   1.385       .  A
C2113      C2124   1.415       .  A
C2114      C2122   1.388       .  A
C2114      C2125   1.417       .  A
C2115      C2116   1.374       .  A
C2115      H2127   1.082       .  S
C2116      H2128   1.082       .  S
C2117      C2118   1.380       .  A
C2117      H2129   1.082       .  S
C2118      H2130   1.082       .  S
C2119      C2120   1.371       .  A
C2119      H2131   1.082       .  S
C2120      H2132   1.082       .  S
C2121      C2122   1.373       .  A
C2121      H2133   1.083       .  S
C2122      H2134   1.082       .  S
C2123      C2171   1.491       .  S
C2124      C2151   1.490       .  S
C2125      C2186   1.459       .  S
C2126      C2222   1.464       .  S
C2137      C2138   1.403       .  A
C2137      C2142   1.400       .  A
C2137      H2143   1.083       .  S
C2138      C2139   1.404       .  A
C2139      C2140   1.398       .  A
C2139      H2144   1.083       .  S
C2140      C2141   1.402       .  A
C2140      H2145   1.083       .  S
C2141      C2142   1.405       .  A
C2142      H2146   1.083       .  S
C2147      C2148   1.405       .  A
C2147      C2152   1.402       .  A
C2147      H2153   1.083       .  S
C2148      C2149   1.405       .  A
C2149      C2150   1.400       .  A
C2149      H2154   1.083       .  S
C2150      C2151   1.403       .  A
C2150      H2155   1.083       .  S
C2151      C2152   1.404       .  A
C2152      H2156   1.083       .  S
C2157      C2158   1.402       .  A
C2157      C2162   1.397       .  A
C2157      H2163   1.083       .  S
C2158      C2159   1.402       .  A
C2159      C2160   1.394       .  A
C2159      H2164   1.083       .  S
C2160      C2161   1.401       .  A
C2160      H2165   1.083       .  S
C2161      C2162   1.402       .  A
C2162      H2166   1.083       .  S
C2167      C2168   1.402       .  A
C2167      C2172   1.397       .  A
C2167      H2173   1.083       .  S
C2168      C2169   1.404       .  A
C2169      C2170   1.400       .  A
C2169      H2174   1.083       .  S
C2170      C2171   1.405       .  A
C2170      H2175   1.083       .  S
C2171      C2172   1.405       .  A
C2172      H2176   1.083       .  S
C2177      C2178   1.202       .  T
C2179      C2180   1.218       .  T
C2181      C2182   1.207       .  T
C2183      C2184   1.210       .  T
C2185      C2186   1.212       .  T
C2187      C2188   1.213       .  T
C2189      C2190   1.214       .  T
C2191      C2192   1.213       .  T
C2193      C2194   1.205       .  T
C2195      C2196   1.211       .  T
C2197      C2198   1.207       .  T
C2199      C2200   1.204       .  T
C2201      C2202   1.211       .  T
C2203      C2204   1.205       .  T
C2205      C2206   1.208       .  T
C2207      C2208   1.210       .  T
C2209      C2210   1.206       .  T
C2211      C2212   1.204       .  T
C2213      C2214   1.204       .  T
C2215      C2216   1.212       .  T
C2217      C2218   1.215       .  T
C2219      C2220   1.210       .  T
C2221      C2222   1.214       .  T
C2223      C2224   1.216       .  T
C2225      C2226   1.207       .  T
C2227      C2228   1.211       .  T
C2229      C2230   1.203       .  T
C2231      C2232   1.210       .  T
C2233      C2234   1.218       .  T
C2235      C2236   1.400       .  A
C2235      C2240   1.394       .  A
C2235      H2241   1.083       .  S
C2236      C2237   1.404       .  A
C2237      C2238   1.401       .  A
C2237      H2242   1.083       .  S
C2238      C2239   1.404       .  A
C2238      H2243   1.083       .  S
C2239      C2240   1.404       .  A
C2240      H2244   1.083       .  S
C2245      C2246   1.410       .  A
C2245      C2250   1.401       .  A
C2245      H2251   1.081       .  S
C2246      C2247   1.410       .  A
C2247      C2248   1.401       .  A
C2247      H2252   1.082       .  S
C2248      C2249   1.410       .  A
C2248      H2253   1.080       .  S
C2249      C2250   1.410       .  A
C2250      H2254   1.082       .  S
C2255      C2256   1.207       .  T
C2257      C2258   1.404       .  A
C2257      C2262   1.402       .  A
C2257      H2263   1.083       .  S
C2258      C2259   1.406       .  A
C2259      C2260   1.403       .  A
C2259      H2264   1.083       .  S
C2260      C2261   1.405       .  A
C2260      H2265   1.083       .  S
C2261      C2262   1.406       .  A
C2262      H2266   1.083       .  S
C2267      C2268   1.404       .  A
C2267      C2272   1.398       .  A
C2267      H2273   1.083       .  S
C2268      C2269   1.401       .  A
C2269      C2270   1.397       .  A
C2269      H2274   1.083       .  S
C2270      C2271   1.405       .  A
C2270      H2275   1.083       .  S
C2271      C2272   1.403       .  A
C2272      H2276   1.083       .  S
C2277      C2278   1.209       .  T
C2279      C2280   1.214       .  T
C2281      C2282   1.207       .  T
C2283      C2284   1.204       .  T
C2285      C2286   1.211       .  T
C2287      C2288   1.211       .  T
C2289      C2290   1.211       .  T
C2291      C2292   1.209       .  T
C2293      C2294   1.212       .  T
C2295      C2296   1.204       .  T
C2297      C2298   1.215       .  T
C2299      C2300   1.404       .  A
C2299      C2304   1.401       .  A
C2299      H2305   1.083       .  S
C2300      C2301   1.402       .  A
C2301      C2302   1.399       .  A
C2301      H2306   1.083       .  S
C2302      C2303   1.405       .  A
C2302      H2307   1.083       .  S
C2303      C2304   1.406       .  A
C2304      H2308   1.083       .  S
C2309      C2310   1.403       .  A
C2309      C2314   1.397       .  A
C2309      H2315   1.083       .  S
C2310      C2311   1.404       .  A
C2311      C2312   1.400       .  A
C2311      H2316   1.083       .  S
C2312      C2313   1.404       .  A
C2312      H2317   1.083       .  S
C2313      C2314   1.404       .  A
C2314      H2318   1.083       .  S
C2319      C2320   1.209       .  T
C2321      C2322   1.402       .  A
C2321      C2326   1.399       .  A
C2321      H2327   1.083       .  S
C2322      C2323   1.403       .  A
C2323      C2324   1.397       .  A
C2323      H2328   1.083       .  S
C2324      C2325   1.402       .  A
C2324      H2329   1.083       .  S
C2325      C2326   1.405       .  A
C2326      H2330   1.083       .  S
C2331      C2332   1.407       .  A
C2331      C2336   1.402       .  A
C2331      H2337   1.083       .  S
C2332      C2333   1.407       .  A
C2333      C2334   1.402       .  A
C2333      H2338   1.083       .  S
C2334      C2335   1.404       .  A
C2334      H2339   1.083       .  S
C2335      C2336   1.404       .  A
C2336      H2340   1.083       .  S
C2341      C2342   1.211       .  T
C2343      C2344   1.210       .  T
C2345      C2346   1.204       .  T
C2347      C2348   1.209       .  T
C2349      C2350   1.210       .  T
C2351      C2352   1.209       .  T
C2353      C2354   1.215       .  T
C2355      C2356   1.214       .  T
C2357      C2358   1.209       .  T
C2359      C2360   1.207       .  T
C2361      C2362   1.204       .  T
C2363      C2364   1.204       .  T
C2365      C2366   1.210       .  T
C2367      C2368   1.213       .  T
C2369      C2370   1.211       .  T
C2371      C2372   1.218       .  T
C2373      C2374   1.216       .  T
C2375      C2376   1.210       .  T
C2377      C2378   1.209       .  T
C2379      C2380   1.204       .  T
C2381      C2382   1.213       .  T
C2383      C2384   1.222       .  T
C2385      C2386   1.205       .  T
C2387      C2388   1.211       .  T
C2389      C2390   1.218       .  T
C2391      C2392   1.211       .  T
C2393      C2394   1.213       .  T
C2395      C2396   1.214       .  T
C2397      C2398   1.204       .  T
C2399      C2400   1.208       .  T
C2401      C2402   1.212       .  T
C2403      C2404   1.408       .  A
C2403      C2408   1.400       .  A
C2403      H2409   1.081       .  S
C2404      C2405   1.411       .  A
C2405      C2406   1.398       .  A
C2405      H2410   1.081       .  S
C2406      C2407   1.407       .  A
C2406      H2411   1.082       .  S
C2407      C2408   1.411       .  A
C2408      H2412   1.082       .  S
C2413      C2414   1.403       .  A
C2413      C2418   1.399       .  A
C2413      H2419   1.083       .  S
C2414      C2415   1.403       .  A
C2415      C2416   1.395       .  A
C2415      H2420   1.083       .  S
C2416      C2417   1.402       .  A
C2416      H2421   1.083       .  S
C2417      C2418   1.404       .  A
C2418      H2422   1.083       .  S
C2423      C2424   1.213       .  T
C2425      C2426   1.402       .  A
C2425      C2430   1.396       .  A
C2425      H2431   1.083       .  S
C2426      C2427   1.402       .  A
C2427      C2428   1.396       .  A
C2427      H2432   1.083       .  S
C2428      C2429   1.401       .  A
C2428      H2433   1.083       .  S
C2429      C2430   1.403       .  A
C2430      H2434   1.083       .  S
C2435      C2436   1.404       .  A
C2435      C2440   1.398       .  A
C2435      H2441   1.083       .  S
C2436      C2437   1.406       .  A
C2437      C2438   1.404       .  A
C2437      H2442   1.083       .  S
C2438      C2439   1.405       .  A
C2438      H2443   1.083       .  S
C2439      C2440   1.403       .  A
C2440      H2444   1.083       .  S
C2445      C2446   1.209       .  T
C2447      C2448   1.205       .  T
C2449      C2450   1.215       .  T
C2451      C2452   1.204       .  T
C2453      C2454   1.206       .  T
C2455      C2456   1.217       .  T
C2457      C2458   1.210       .  T
C2459      C2460   1.209       .  T
C2461      C2462   1.214       .  T
C2463      C2464   1.204       .  T
C2465      C2466   1.215       .  T
C2467      C2468   1.411       .  A
C2467      C2472   1.398       .  A
C2467      H2473   1.081       .  S
C2468      C2469   1.406       .  A
C2469      C2470   1.394       .  A
C2469      H2474   1.080       .  S
C2470      C2471   1.409       .  A
C2470      H2475   1.082       .  S
C2471      C2472   1.407       .  A
C2472      H2476   1.081       .  S
C2477      C2478   1.404       .  A
C2477      C2482   1.400       .  A
C2477      H2483   1.083       .  S
C2478      C2479   1.406       .  A
C2479      C2480   1.399       .  A
C2479      H2484   1.083       .  S
C2480      C2481   1.403       .  A
C2480      H2485   1.083       .  S
C2481      C2482   1.407       .  A
C2482      H2486   1.083       .  S
C2487      C2488   1.210       .  T
C2489      C2490   1.402       .  A
C2489      C2494   1.401       .  A
C2489      H2495   1.083       .  S
C2490      C2491   1.405       .  A
C2491      C2492   1.399       .  A
C2491      H2496   1.083       .  S
C2492      C2493   1.402       .  A
C2492      H2497   1.083       .  S
C2493      C2494   1.406       .  A
C2494      H2498   1.083       .  S
C2499      C2500   1.408       .  A
C2499      C2504   1.402       .  A
C2499      H2505   1.080       .  S
C2500      C2501   1.409       .  A
C2501      C2502   1.398       .  A
C2501      H2506   1.082       .  S
C2502      C2503   1.409       .  A
C2502      H2507   1.079       .  S
C2503      C2504   1.413       .  A
C2504      H2508   1.081       .  S
C2509      C2510   1.212       .  T
C2511      C2512   1.212       .  T
C2513      C2514   1.204       .  T
C2515      C2516   1.209       .  T
C2517      C2518   1.211       .  T
C2519      C2520   1.213       .  T
C2521      C2522   1.211       .  T
C2523      C2524   1.212       .  T
C2525      C2526   1.209       .  T
C2527      C2528   1.209       .  T
C2529      C2530   1.203       .  T
C2531      C2532   1.210       .  T
C2533      C2534   1.209       .  T
C2535      C2536   1.202       .  T
C2537      C2538   1.211       .  T
C2539      C2540   1.210       .  T
C2541      C2542   1.210       .  T
C2543      C2544   1.211       .  T
C2545      C2546   1.209       .  T
C2547      C2548   1.203       .  T
C2549      C2550   1.204       .  T
C2551      C2552   1.211       .  T
C2553      C2554   1.216       .  T
C2555      C2556   1.214       .  T
C2557      C2558   1.212       .  T
C2559      C2560   1.214       .  T
C2561      C2562   1.211       .  T
C2563      C2564   1.214       .  T
C2565      C2566   1.204       .  T
C2567      C2568   1.209       .  T
C2569      C2570   1.209       .  T
C2571      C2572   1.210       .  T
C2573      C2574   1.403       .  A
C2573      C2578   1.399       .  A
C2573      H2579   1.083       .  S
C2574      C2575   1.403       .  A
C2575      C2576   1.399       .  A
C2575      H2580   1.083       .  S
C2576      C2577   1.403       .  A
C2576      H2581   1.083       .  S
C2577      C2578   1.404       .  A
C2578      H2582   1.083       .  S
C2583      C2584   1.405       .  A
C2583      C2588   1.402       .  A
C2583      H2589   1.083       .  S
C2584      C2585   1.404       .  A
C2585      C2586   1.399       .  A
C2585      H2590   1.083       .  S
C2586      C2587   1.404       .  A
C2586      H2591   1.083       .  S
C2587      C2588   1.405       .  A
C2588      H2592   1.083       .  S
C2593      C2594   1.214       .  T
C2595      C2596   1.214       .  T
C2597      C2598   1.403       .  A
C2597      C2602   1.397       .  A
C2597      H2603   1.083       .  S
C2598      C2599   1.404       .  A
C2599      C2600   1.394       .  A
C2599      H2604   1.083       .  S
C2600      C2601   1.401       .  A
C2600      H2605   1.083       .  S
C2601      C2602   1.402       .  A
C2602      H2606   1.083       .  S
C2607      C2608   1.402       .  A
C2607      C2612   1.396       .  A
C2607      H2613   1.083       .  S
C2608      C2609   1.403       .  A
C2609      C2610   1.398       .  A
C2609      H2614   1.083       .  S
C2610      C2611   1.403       .  A
C2610      H2615   1.083       .  S
C2611      C2612   1.403       .  A
C2612      H2616   1.083       .  S
C2617      C2618   1.208       .  T
C2619      C2620   1.213       .  T
C2621      C2622   1.210       .  T
C2623      C2624   1.204       .  T
C2625      C2626   1.214       .  T
C2627      C2628   1.210       .  T
C2629      C2630   1.213       .  T
C2631      C2632   1.215       .  T
C2633      C2634   1.218       .  T
C2635      C2636   1.206       .  T
C2637      C2638   1.205       .  T
C2639      C2640   1.203       .  T
