geometry optimzed in LAMMPS
_audit_creation_date              2020-12-01 
_audit_creation_method            'lammps2cif' 
_symmetry_space_group_name_H-M    'P1' 
_symmetry_Int_Tables_number       1 
_symmetry_cell_setting            triclinic 
loop_ 
_symmetry_equiv_pos_as_xyz 
  x,y,z 
_cell_length_a                    36.10641769 
_cell_length_b                    35.90071345438475 
_cell_length_c                    25.93075598149699 
_cell_angle_alpha                 89.69265843938761 
_cell_angle_beta                  90.07369350205762 
_cell_angle_gamma                 120.3108471108504 
loop_ 
_atom_site_label 
_atom_site_type_symbol 
_atom_site_fract_x 
_atom_site_fract_y 
_atom_site_fract_z 
_atom_site_charge 
C1          C  0.33237969  0.16030987  0.05061604     0.30500
C2          C  0.32934146  0.16273744  0.94439880     0.30500
C3          C  0.34931949  0.13354975  0.02054090    -0.05700
C4          C  0.28756958  0.14319662  0.02551412    -0.06500
C5          C  0.35955049  0.20534921  0.02424533    -0.06400
C6          C  0.34687194  0.13495246  0.96635482    -0.05700
C7          C  0.28709465  0.14568397  0.97207200    -0.06500
C8          C  0.35864545  0.20566010  0.97049624    -0.06400
C9          C  0.36814949  0.11578780  0.94516290    -0.31800
N10         N  0.38216610  0.10103518  0.98361249     0.14700
C11         C  0.37281518  0.11282242  0.02938238    -0.31800
H12         H  0.38498660  0.10838778  0.06540899     0.16700
C13         C  0.24568611  0.12870513  0.95554383    -0.30800
N14         N  0.22014740  0.11498921  0.99730745     0.13400
C15         C  0.24482705  0.12288963  0.04033006    -0.30800
C16         C  0.38456766  0.24724646  0.95342640    -0.31100
N17         N  0.39869300  0.27310993  0.99481794     0.13900
H18         H  0.39071739  0.25845283  0.91385519     0.16600
C19         C  0.38456995  0.24831119  0.03836684    -0.31100
H20         H  0.39094120  0.26079624  0.07726289     0.16600
H21         H  0.23254368  0.11408437  0.07925977     0.16600
H22         H  0.37585063  0.11489787  0.90508734     0.16600
H23         H  0.23470235  0.12493650  0.91602006     0.16600
C24         C  0.33977467  0.17787188  0.45214238     0.30500
C25         C  0.33819671  0.17699009  0.55855194     0.30500
C26         C  0.36353971  0.15746714  0.48004841    -0.05700
C27         C  0.35966112  0.22276557  0.47939013    -0.06500
C28         C  0.29461965  0.15394690  0.47823635    -0.06400
C29         C  0.36197462  0.15670800  0.53391342    -0.05700
C30         C  0.35814504  0.22100981  0.53328168    -0.06500
C31         C  0.29454996  0.15182886  0.53201983    -0.06400
C32         C  0.38241723  0.13567639  0.55171116    -0.31800
N33         N  0.39847175  0.12561678  0.51071814     0.14700
C34         C  0.38683071  0.13798856  0.46671388    -0.31800
H35         H  0.39454948  0.13294321  0.42801045     0.16700
C36         C  0.37530964  0.26180241  0.55270281    -0.30800
N37         N  0.38778979  0.28921489  0.51259517     0.13400
C38         C  0.37812115  0.26649727  0.46784938    -0.30800
C39         C  0.25297803  0.12528140  0.54824362    -0.31100
N40         N  0.22715724  0.11523273  0.50711374     0.13900
H41         H  0.24164397  0.11424539  0.58703123     0.16600
C42         C  0.25169611  0.13251763  0.46400899    -0.31100
H43         H  0.23923624  0.12913673  0.42526540     0.16600
H44         H  0.38345920  0.28143710  0.43031618     0.16600
H45         H  0.38539398  0.12804362  0.59139391     0.16600
H46         H  0.37911242  0.27101692  0.59288018     0.16600
C47         C  0.16442095  0.32867250  0.05693107     0.30500
C48         C  0.16332991  0.33224563  0.95061945     0.30500
C49         C  0.14999991  0.35859706  0.03445717    -0.05700
C50         C  0.20794322  0.34615903  0.03068949    -0.06500
C51         C  0.13696172  0.28627707  0.02974376    -0.06400
C52         C  0.14652519  0.35892996  0.98071895    -0.05700
C53         C  0.20786984  0.34843917  0.97672174    -0.06500
C54         C  0.13580289  0.28696284  0.97609412    -0.06400
C55         C  0.12338305  0.37996888  0.97230769    -0.31800
N56         N  0.11801788  0.39559885  0.01772006     0.14700
C57         C  0.13515309  0.38367079  0.05578241    -0.31800
H58         H  0.13362697  0.38984597  0.09630954     0.16700
C59         C  0.25058380  0.36883601  0.96189812    -0.30800
N60         N  0.27531312  0.37805684  0.00499738     0.13400
C61         C  0.24990570  0.36572153  0.04687012    -0.30800
C62         C  0.11166651  0.24388751  0.96191470    -0.31100
N63         N  0.09946385  0.21892221  0.00548664     0.13900
H64         H  0.10473936  0.23149974  0.92302458     0.16600
C65         C  0.11481954  0.24450473  0.04687749    -0.31100
H66         H  0.11151819  0.23333644  0.08641896     0.16600
H67         H  0.26202434  0.37356505  0.08578975     0.16600
H68         H  0.10875907  0.38185200  0.93680549     0.16600
H69         H  0.26281828  0.37715892  0.92293006     0.16600
C70         C  0.16917519  0.34532039  0.44225675     0.30500
C71         C  0.17052386  0.34515210  0.54863745     0.30500
C72         C  0.14336424  0.36210261  0.46859030    -0.05700
C73         C  0.15417009  0.30173990  0.46790233    -0.06500
C74         C  0.21373251  0.37240299  0.46637792    -0.06400
C75         C  0.14406872  0.36300541  0.52214243    -0.05700
C76         C  0.15329202  0.30070229  0.52168700    -0.06500
C77         C  0.21522391  0.37213473  0.52070173    -0.06400
C78         C  0.12197052  0.38370684  0.53584617    -0.31800
N79         N  0.10783048  0.39371891  0.49198856     0.14700
C80         C  0.12089418  0.38084983  0.45081266    -0.31800
H81         H  0.11580035  0.38628120  0.41098077     0.16700
C82         C  0.13487300  0.25743231  0.53492157    -0.30800
N83         N  0.12592816  0.23380070  0.49089085     0.13400
C84         C  0.13917217  0.26065281  0.45007991    -0.30800
C85         C  0.25867852  0.39088376  0.53243247    -0.31100
N86         N  0.28203182  0.40396309  0.48811295     0.13900
H87         H  0.27293724  0.39315908  0.56974532     0.16600
C88         C  0.25516358  0.39164525  0.44775246    -0.31100
H89         H  0.26560905  0.39400668  0.40823323     0.16600
H90         H  0.13559091  0.25046212  0.41027562     0.16600
H91         H  0.11716024  0.39158217  0.57457332     0.16600
H92         H  0.12750753  0.24393591  0.57347274     0.16600
O93         O  0.44160614  0.01424163  0.03100010    -0.87900
C94         C  0.43354533  0.42929865  0.92017126     0.88100
Mg95       Mg  0.48922811  0.08196420  0.02722854     1.58100
O96         O  0.47856666  0.42378166  0.04011578    -0.87600
O97         O  0.41737634  0.45875851  0.08243525    -0.75000
C98         C  0.17447606  0.09243319  0.99508730     0.93200
O99         O  0.46288871  0.03510807  0.90958058    -0.74800
O100        O  0.15546585  0.11206403  0.97931088    -0.82300
Mg101      Mg  0.40582248  0.48848670  0.96049368     1.58000
C102        C  0.09373535  0.41677008  0.02437310     0.93100
O103        O  0.34128255  0.44014323  0.99450607    -0.80500
H104        H  0.47330070  0.41036037  0.11554012    -0.05900
C105        C  0.06776062  0.99491430  0.92812810     0.88000
O106        O  0.03278892  0.07364159  0.08501530    -0.75000
O107        O  0.42559183  0.44043182  0.96159359    -0.87800
O108        O  0.05403974  0.39602627  0.01336451    -0.80600
C109        C  0.41973899  0.31909304  0.99202098     0.93200
C110        C  0.32104718  0.40053756  0.00717966     0.93100
Mg111      Mg  0.08955025  0.00457457  0.04248845     1.58000
O112        O  0.15427398  0.05335672  0.00982177    -0.80500
O113        O  0.03235399  0.45758476  0.09265264    -0.74800
O114        O  0.39816252  0.33752486  0.00141844    -0.80600
O115        O  0.38371777  0.03777881  0.96800510    -0.82300
O116        O  0.09856243  0.15399780  0.00003078    -0.80700
C117        C  0.99364869  0.42931287  0.08391938     0.87500
O118        O  0.06956977  0.05213740  0.04032071    -0.87800
O119        O  0.05423761  0.47885330  0.97094278    -0.87900
O120        O  0.07866592  0.03373168  0.91876227    -0.75000
Mg121      Mg  0.41106994  0.40283248  0.03310474     1.58000
O122        O  0.45937911  0.34016090  0.98093128    -0.82300
H123        H  0.42720448  0.01722132  0.10474014    -0.06100
O124        O  0.01733016  0.06807837  0.96139435    -0.87600
H125        H  0.02217887  0.08138429  0.88593944    -0.05900
H126        H  0.07853310  0.06335353  0.11601724    -0.06100
C127        C  0.50193865  0.06270688  0.91777767     0.87500
C128        C  0.42845128  0.49777912  0.07377771     0.88100
C129        C  0.06151500  0.06335068  0.08168002     0.88100
H130        H  0.06923050  0.47519596  0.89767953    -0.06000
O131        O  0.46237217  0.41917356  0.91668533    -0.75100
Mg132      Mg  0.08468090  0.08920565  0.96812290     1.58000
H133        H  0.41627026  0.42907584  0.88597023    -0.06100
C134        C  0.40473520  0.07809732  0.97696314     0.93100
O135        O  0.03776690  0.15268440  0.01868254    -0.82300
C136        C  0.07753073  0.17303413  0.00827345     0.93200
O137        O  0.34005957  0.38036106  0.02117248    -0.82300
Mg138      Mg  0.00713546  0.41128963  0.97317864     1.58200
O139        O  0.44522326  0.09839919  0.98196164    -0.80600
O140        O  0.11283976  0.45627158  0.03735936    -0.82300
O141        O  0.48624691  0.06539081  0.46296567    -0.87900
C142        C  0.07202601  0.08035462  0.57817846     0.88100
Mg143      Mg  0.41866813  0.01677638  0.46513687     1.58100
O144        O  0.07735859  0.02950684  0.46323836    -0.87600
O145        O  0.04205275  0.08852379  0.41313385    -0.75000
C146        C  0.41044232  0.33496624  0.51667603     0.93200
O147        O  0.46453715  0.04781687  0.58490180    -0.74800
O148        O  0.38988507  0.35399600  0.52738274    -0.82300
Mg149      Mg  0.01165796  0.10356119  0.53280406     1.58000
C150        C  0.08547150  0.41685561  0.48892936     0.93100
O151        O  0.06182895  0.16872233  0.49884113    -0.80500
H152        H  0.09028605  0.03140984  0.38806631    -0.05900
C153        C  0.50617732  0.44669248  0.58020517     0.88000
O154        O  0.42801249  0.47074320  0.41308729    -0.75000
O155        O  0.05952197  0.08420534  0.53539822    -0.87800
O156        O  0.10555566  0.45655983  0.50037881    -0.80600
C157        C  0.18144242  0.09264686  0.51025702     0.93200
C158        C  0.10150491  0.18792832  0.48707010     0.93100
Mg159      Mg  0.49735876  0.41849477  0.46820172     1.58000
O160        O  0.45041986  0.35526760  0.50717722    -0.80500
O161        O  0.04309923  0.47326708  0.41415019    -0.74800
O162        O  0.16199360  0.11239921  0.49712381    -0.80600
O163        O  0.46194585  0.12471117  0.52406313    -0.82300
O164        O  0.34750044  0.40724822  0.49769864    -0.80700
C165        C  0.07157484  0.51239271  0.42066084     0.87500
O166        O  0.44957274  0.43742124  0.46445263    -0.87800
O167        O  0.02302334  0.45783582  0.53733047    -0.87900
O168        O  0.46703577  0.43498774  0.58692760    -0.75000
Mg169      Mg  0.09731874  0.09686638  0.46477222     1.58000
O170        O  0.16158691  0.05358484  0.52542243    -0.82300
H171        H  0.48413671  0.07754712  0.38804936    -0.06100
O172        O  0.43093256  0.49173971  0.53543133    -0.87600
H173        H  0.41688121  0.48964660  0.61023289    -0.05900
H174        H  0.43891950  0.42329156  0.38946192    -0.06100
C175        C  0.43612587  0.00872115  0.57799473     0.87500
C176        C  0.00312545  0.07740498  0.42024725     0.88100
C177        C  0.43849900  0.44248226  0.42125258     0.88100
H178        H  0.02535393  0.44776026  0.61284270    -0.06000
O179        O  0.08321581  0.05263810  0.58614155    -0.75100
Mg180      Mg  0.41148182  0.42460026  0.53421408     1.58000
H181        H  0.07252811  0.10026728  0.60966732    -0.06100
C182        C  0.42207041  0.10361159  0.51334222     0.93100
O183        O  0.34750974  0.46649988  0.47193387    -0.82300
C184        C  0.32780954  0.42678267  0.48472120     0.93200
O185        O  0.12025526  0.16775403  0.47312728    -0.82300
Mg186      Mg  0.09054689  0.50520709  0.53432286     1.58200
O187        O  0.40246712  0.06365449  0.50280740    -0.80600
O188        O  0.04612160  0.39693931  0.47634570    -0.82300
C189        C  0.16487315  0.33385268  0.89003815    -0.11500
C190        C  0.17698245  0.30847948  0.85997739     0.04000
C191        C  0.17641748  0.30969831  0.80531905    -0.12100
C192        C  0.16486001  0.33645089  0.77843061     0.18800
C193        C  0.15509720  0.36321961  0.80769392    -0.09100
C194        C  0.15644700  0.36268255  0.86195235    -0.02100
H195        H  0.18590306  0.29015517  0.78361847     0.05300
C196        C  0.16625875  0.33881350  0.72024077     0.20800
H197        H  0.15313649  0.38707921  0.88116237     0.10500
C198        C  0.12933168  0.31272621  0.69094152    -0.15400
C199        C  0.12944294  0.31582985  0.63647248     0.03500
C200        C  0.16792608  0.34393904  0.60897375    -0.10800
C201        C  0.20339876  0.37258818  0.63940071    -0.00800
C202        C  0.20302462  0.36994263  0.69366236    -0.05900
H203        H  0.09976762  0.29064636  0.71068931     0.06500
H204        H  0.23106339  0.39918326  0.62187297     0.09900
Br205      Br  0.14073728  0.40228877  0.77482966    -0.05600
Br206      Br  0.19837150  0.27404134  0.89025337    -0.02600
Br207      Br  0.07459319  0.28383874  0.60317290     0.00300
Br208      Br  0.25313637  0.41134450  0.73023633    -0.04100
C209        C  0.16026086  0.32297750  0.11493196    -0.11500
C210        C  0.12236722  0.31516590  0.14077687     0.04000
C211        C  0.12307349  0.31964689  0.19385543    -0.12100
C212        C  0.15890460  0.32651615  0.22216516     0.18800
C213        C  0.19193485  0.32346593  0.19767258    -0.09100
C214        C  0.19209071  0.32123024  0.14423016    -0.02100
H215        H  0.09550142  0.31768428  0.21305280     0.05300
C216        C  0.15997686  0.33449306  0.27737071     0.20800
H217        H  0.21613820  0.31630545  0.12627325     0.10500
C218        C  0.12495445  0.30604639  0.30769654    -0.15400
C219        C  0.12537703  0.31215573  0.36046532     0.03500
C220        C  0.16377491  0.34393919  0.38425670    -0.10800
C221        C  0.19513717  0.37650711  0.35278068    -0.00800
C222        C  0.19359953  0.37199559  0.29952891    -0.05900
H223        H  0.09686823  0.27938540  0.29018252     0.06500
H224        H  0.21984917  0.40641680  0.36895295     0.09900
Br225      Br  0.23625069  0.32040726  0.23525621    -0.05600
Br226      Br  0.06767675  0.29519484  0.10772057    -0.02600
Br227      Br  0.07127604  0.27851155  0.39570200     0.00300
Br228      Br  0.23634101  0.41897168  0.25886337    -0.04100
C229        C  0.32453250  0.16468683  0.88656866    -0.11500
C230        C  0.31918078  0.19740444  0.86295677     0.03600
C231        C  0.32396233  0.20315528  0.80989416    -0.12100
C232        C  0.32833632  0.17357208  0.77961479     0.18800
C233        C  0.32447295  0.13618600  0.80194926    -0.09100
C234        C  0.32135619  0.13145552  0.85512251    -0.02100
H235        H  0.32273921  0.22985015  0.79193271     0.05300
C236        C  0.33273523  0.17982792  0.72417078     0.20800
H237        H  0.31510727  0.10109470  0.87135294     0.10500
C238        C  0.37170952  0.19041696  0.70070110    -0.15400
C239        C  0.37538106  0.19265189  0.64714619     0.03500
C240        C  0.33828012  0.18031311  0.61685618    -0.10800
C241        C  0.30261197  0.17845503  0.64144546    -0.00800
C242        C  0.29863684  0.17594774  0.69455133    -0.05900
H243        H  0.39935000  0.19753580  0.72416318     0.06500
H244        H  0.27772358  0.17965810  0.61980576     0.09900
Br245      Br  0.32164536  0.09023069  0.76134894    -0.05600
Br246      Br  0.30015102  0.23172058  0.89871297    -0.02600
Br247      Br  0.43267978  0.21943798  0.61953459     0.00300
Br248      Br  0.24550376  0.16551523  0.72440870    -0.04100
C249        C  0.33204706  0.16151132  0.11106677    -0.11500
C250        C  0.31975742  0.18786124  0.13879737     0.04000
C251        C  0.32277065  0.19072847  0.19320724    -0.12100
C252        C  0.33724021  0.16743246  0.22240338     0.18800
C253        C  0.34755729  0.13985870  0.19547719    -0.09100
C254        C  0.34361132  0.13620928  0.14142876    -0.02100
H255        H  0.31320400  0.21104358  0.21300369     0.05300
C256        C  0.33925054  0.17051741  0.28063859     0.20800
H257        H  0.34854051  0.11213676  0.12424733     0.10500
C258        C  0.31439213  0.13358300  0.31106355    -0.15400
C259        C  0.31593396  0.13495769  0.36544985     0.03500
C260        C  0.34016833  0.17484930  0.39196992    -0.10800
C261        C  0.36733611  0.21103071  0.36095741    -0.00800
C262        C  0.36697354  0.20923762  0.30654825    -0.05900
H263        H  0.29434021  0.10292898  0.29226337     0.06500
H264        H  0.39129828  0.24045087  0.37840521     0.09900
Br265      Br  0.36945737  0.10771469  0.23039417    -0.05600
Br266      Br  0.29618937  0.21943717  0.10585939    -0.02600
Br267      Br  0.28737855  0.07991385  0.39996493     0.00300
Br268      Br  0.40792282  0.25973981  0.26937660    -0.04100
C269        C  0.33237993  0.66031014  0.05061698     0.30500
C270        C  0.32934167  0.66273778  0.94439975     0.30500
C271        C  0.34931916  0.63354955  0.02054182    -0.05700
C272        C  0.28756990  0.64319743  0.02551511    -0.06500
C273        C  0.35955114  0.70534943  0.02424625    -0.06400
C274        C  0.34687157  0.63495230  0.96635574    -0.05700
C275        C  0.28709496  0.64568489  0.97207300    -0.06500
C276        C  0.35864615  0.70566030  0.97049714    -0.06400
C277        C  0.36814893  0.61578750  0.94516371    -0.31800
N278        N  0.38216550  0.60103478  0.98361324     0.14700
C279        C  0.37281470  0.61282204  0.02938316    -0.31800
H280        H  0.38498616  0.60838732  0.06540997     0.16700
C281        C  0.24568642  0.62870622  0.95554487    -0.30800
N282        N  0.22014775  0.61499018  0.99730858     0.13400
C283        C  0.24482741  0.62289046  0.04033106    -0.30800
C284        C  0.38456860  0.74724659  0.95342727    -0.31100
N285        N  0.39869389  0.77311010  0.99481875     0.13900
H286        H  0.39071842  0.75845294  0.91385600     0.16600
C287        C  0.38457068  0.74831142  0.03836770    -0.31100
H288        H  0.39094179  0.76079653  0.07726370     0.16600
H289        H  0.23254393  0.61408489  0.07926113     0.16600
H290        H  0.37585003  0.61489762  0.90508824     0.16600
H291        H  0.23470265  0.62493755  0.91602123     0.16600
C292        C  0.33977453  0.67787218  0.45214330     0.30500
C293        C  0.33819686  0.67699023  0.55855287     0.30500
C294        C  0.36353959  0.65746731  0.48004903    -0.05700
C295        C  0.35966111  0.72276582  0.47939115    -0.06500
C296        C  0.29461959  0.65394721  0.47823747    -0.06400
C297        C  0.36197461  0.65670806  0.53391408    -0.05700
C298        C  0.35814523  0.72101000  0.53328271    -0.06500
C299        C  0.29455001  0.65182911  0.53202094    -0.06400
C300        C  0.38241713  0.63567630  0.55171159    -0.31800
N301        N  0.39847153  0.62561673  0.51071838     0.14700
C302        C  0.38683046  0.63798866  0.46671433    -0.31800
H303        H  0.39454924  0.63294327  0.42801031     0.16700
C304        C  0.37531001  0.76180260  0.55270393    -0.30800
N305        N  0.38779003  0.78921511  0.51259630     0.13400
C306        C  0.37812113  0.76649752  0.46785050    -0.30800
C307        C  0.25297811  0.62528165  0.54824480    -0.31100
N308        N  0.22715724  0.61523290  0.50711505     0.13900
H309        H  0.24164404  0.61424562  0.58703283     0.16600
C310        C  0.25169602  0.63251788  0.46401018    -0.31100
H311        H  0.23923619  0.62913699  0.42526702     0.16600
H312        H  0.38345902  0.78143746  0.43031724     0.16600
H313        H  0.38539391  0.62804340  0.59139420     0.16600
H314        H  0.37911291  0.77101707  0.59288123     0.16600
C315        C  0.16442133  0.82867306  0.05693030     0.30500
C316        C  0.16333028  0.83224589  0.95061869     0.30500
C317        C  0.15000028  0.85859753  0.03445620    -0.05700
C318        C  0.20794360  0.84615950  0.03068875    -0.06500
C319        C  0.13696211  0.78627755  0.02974314    -0.06400
C320        C  0.14652555  0.85893024  0.98071799    -0.05700
C321        C  0.20787023  0.84843945  0.97672098    -0.06500
C322        C  0.13580321  0.78696316  0.97609350    -0.06400
C323        C  0.12338291  0.87996858  0.97230650    -0.31800
N324        N  0.11801756  0.89559857  0.01771874     0.14700
C325        C  0.13515309  0.88367101  0.05578123    -0.31800
H326        H  0.13362688  0.88984629  0.09630832     0.16700
C327        C  0.25058420  0.86883600  0.96189741    -0.30800
N328        N  0.27531348  0.87805684  0.00499669     0.13400
C329        C  0.24990606  0.86572185  0.04686940    -0.30800
C330        C  0.11166670  0.74388780  0.96191427    -0.31100
N331        N  0.09946412  0.71892262  0.00548630     0.13900
H332        H  0.10473941  0.73149990  0.92302413     0.16600
C333        C  0.11481994  0.74450526  0.04687705    -0.31100
H334        H  0.11151864  0.73333711  0.08641847     0.16600
H335        H  0.26202473  0.87356556  0.08578902     0.16600
H336        H  0.10875881  0.88185130  0.93680418     0.16600
H337        H  0.26281873  0.87715873  0.92292923     0.16600
C338        C  0.16917548  0.84532056  0.44225609     0.30500
C339        C  0.17052428  0.84515232  0.54863677     0.30500
C340        C  0.14336464  0.86210288  0.46858969    -0.05700
C341        C  0.15417027  0.80174004  0.46790168    -0.06500
C342        C  0.21373285  0.87240306  0.46637717    -0.06400
C343        C  0.14406916  0.86300569  0.52214180    -0.05700
C344        C  0.15329229  0.80070248  0.52168636    -0.06500
C345        C  0.21522432  0.87213483  0.52070097    -0.06400
C346        C  0.12197076  0.88370692  0.53584560    -0.31800
N347        N  0.10783065  0.89371892  0.49198797     0.14700
C348        C  0.12089443  0.88084995  0.45081207    -0.31800
H349        H  0.11580052  0.88628125  0.41098020     0.16700
C350        C  0.13487316  0.75743252  0.53492098    -0.30800
N351        N  0.12592816  0.73380083  0.49089039     0.13400
C352        C  0.13917215  0.76065288  0.45007929    -0.30800
C353        C  0.25867896  0.89088388  0.53243160    -0.31100
N354        N  0.28203222  0.90396317  0.48811206     0.13900
H355        H  0.27293775  0.89315925  0.56974441     0.16600
C356        C  0.25516391  0.89164529  0.44775162    -0.31100
H357        H  0.26560929  0.89400672  0.40823229     0.16600
H358        H  0.13559083  0.75046221  0.41027538     0.16600
H359        H  0.11716041  0.89158206  0.57457252     0.16600
H360        H  0.12750767  0.74393611  0.57347246     0.16600
O361        O  0.44160574  0.51424138  0.03100025    -0.87900
C362        C  0.43354543  0.92929856  0.92017123     0.88100
Mg363      Mg  0.48922763  0.58196398  0.02722862     1.58100
O364        O  0.47856713  0.92378196  0.04011579    -0.87600
O365        O  0.41737664  0.95875886  0.08243522    -0.75000
C366        C  0.17447643  0.59243393  0.99508844     0.93200
O367        O  0.46288816  0.53510789  0.90958068    -0.74800
O368        O  0.15546605  0.61206442  0.97931142    -0.82300
Mg369      Mg  0.40582298  0.98848689  0.96049346     1.58000
C370        C  0.09373489  0.91676965  0.02437150     0.93100
O371        O  0.34128292  0.94014319  0.99450532    -0.80500
H372        H  0.47330145  0.91036063  0.11554008    -0.05900
C373        C  0.06776149  0.49491474  0.92812907     0.88000
O374        O  0.03278902  0.57364219  0.08501539    -0.75000
O375        O  0.42559226  0.94043195  0.96159361    -0.87800
O376        O  0.05403948  0.89602593  0.01336198    -0.80600
C377        C  0.41973967  0.81909319  0.99202161     0.93200
C378        C  0.32104755  0.90053758  0.00717915     0.93100
Mg379      Mg  0.08955072  0.50457505  0.04248962     1.58000
O380        O  0.15427454  0.55335764  0.00982363    -0.80500
O381        O  0.03235375  0.95758455  0.09265185    -0.74800
O382        O  0.39816321  0.83752489  0.00141983    -0.80600
O383        O  0.38371720  0.53777849  0.96800561    -0.82300
O384        O  0.09856268  0.65399813  0.00003149    -0.80700
C385        C  0.99364848  0.92931254  0.08391880     0.87500
O386        O  0.06956997  0.55213774  0.04032141    -0.87800
O387        O  0.05423672  0.97885284  0.97094179    -0.87900
O388        O  0.07866645  0.53373201  0.91876306    -0.75000
Mg389      Mg  0.41107040  0.90283274  0.03310498     1.58000
O390        O  0.45937959  0.84016114  0.98093094    -0.82300
H391        H  0.42720427  0.51722105  0.10474057    -0.06100
O392        O  0.01733038  0.56807860  0.96139439    -0.87600
H393        H  0.02217913  0.58138419  0.88593969    -0.05900
H394        H  0.07853286  0.56335404  0.11601775    -0.06100
C395        C  0.50193813  0.56270673  0.91777768     0.87500
C396        C  0.42845157  0.99777946  0.07377759     0.88100
C397        C  0.06151505  0.56335114  0.08168058     0.88100
H398        H  0.06922943  0.97519548  0.89767846    -0.06000
O399        O  0.46237227  0.91917350  0.91668508    -0.75100
Mg400      Mg  0.08468115  0.58920595  0.96812343     1.58000
H401        H  0.41627013  0.92907556  0.88597044    -0.06100
C402        C  0.40473462  0.57809697  0.97696363     0.93100
O403        O  0.03776700  0.65268485  0.01868189    -0.82300
C404        C  0.07753093  0.67303453  0.00827334     0.93200
O405        O  0.34005993  0.88036118  0.02117250    -0.82300
Mg406      Mg  0.00713467  0.91128916  0.97317755     1.58200
O407        O  0.44522272  0.59839890  0.98196170    -0.80600
O408        O  0.11283908  0.95627101  0.03735831    -0.82300
O409        O  0.48624643  0.56539059  0.46296547    -0.87900
C410        C  0.07202587  0.58035473  0.57817865     0.88100
Mg411      Mg  0.41866765  0.51677615  0.46513691     1.58100
O412        O  0.07735892  0.52950694  0.46323884    -0.87600
O413        O  0.04205295  0.58852358  0.41313398    -0.75000
C414        C  0.41044257  0.83496646  0.51667717     0.93200
O415        O  0.46453713  0.54781663  0.58490179    -0.74800
O416        O  0.38988522  0.85399624  0.52738320    -0.82300
Mg417      Mg  0.01165797  0.60356140  0.53280385     1.58000
C418        C  0.08547160  0.91685556  0.48892875     0.93100
O419        O  0.06182892  0.66872246  0.49884063    -0.80500
H420        H  0.09028653  0.53140983  0.38806701    -0.05900
C421        C  0.50617753  0.94669294  0.58020571     0.88000
O422        O  0.42801324  0.97074349  0.41308749    -0.75000
O423        O  0.05952198  0.58420551  0.53539838    -0.87800
O424        O  0.10555579  0.95655988  0.50037775    -0.80600
C425        C  0.18144242  0.59264699  0.51025822     0.93200
C426        C  0.10150494  0.68792844  0.48706980     0.93100
Mg427      Mg  0.49735889  0.91849474  0.46820253     1.58000
O428        O  0.45042023  0.85526782  0.50717901    -0.80500
O429        O  0.04309902  0.97326689  0.41414983    -0.74800
O430        O  0.16199360  0.61239928  0.49712480    -0.80600
O431        O  0.46194551  0.62471092  0.52406343    -0.82300
O432        O  0.34750086  0.90724838  0.49769808    -0.80700
C433        C  0.07157443  0.01239259  0.42066040     0.87500
O434        O  0.44957294  0.93742118  0.46445311    -0.87800
O435        O  0.02302348  0.95783571  0.53733021    -0.87900
O436        O  0.46703599  0.93498818  0.58692805    -0.75000
Mg437      Mg  0.09731895  0.59686644  0.46477260     1.58000
O438        O  0.16158689  0.55358492  0.52542357    -0.82300
H439        H  0.48413608  0.57754669  0.38804897    -0.06100
O440        O  0.43093285  0.99173993  0.53543134    -0.87600
H441        H  0.41688114  0.98964682  0.61023280    -0.05900
H442        H  0.43892016  0.92329167  0.38946219    -0.06100
C443        C  0.43612579  0.50872093  0.57799478     0.87500
C444        C  0.00312564  0.57740471  0.42024721     0.88100
C445        C  0.43849952  0.94248240  0.42125297     0.88100
H446        H  0.02535423  0.94776024  0.61284268    -0.06000
O447        O  0.08321557  0.55263818  0.58614193    -0.75100
Mg448      Mg  0.41148200  0.92460047  0.53421428     1.58000
H449        H  0.07252795  0.60026761  0.60966773    -0.06100
C450        C  0.42207011  0.60361146  0.51334231     0.93100
O451        O  0.34751017  0.96650004  0.47193328    -0.82300
C452        C  0.32780996  0.92678279  0.48472041     0.93200
O453        O  0.12025536  0.66775411  0.47312745    -0.82300
Mg454      Mg  0.09054698  0.00520704  0.53432220     1.58200
O455        O  0.40246680  0.56365444  0.50280710    -0.80600
O456        O  0.04612162  0.89693913  0.47634542    -0.82300
C457        C  0.16487353  0.83385299  0.89003743    -0.11500
C458        C  0.17698242  0.80847950  0.85997666     0.04000
C459        C  0.17641750  0.80969837  0.80531833    -0.12100
C460        C  0.16486055  0.83645137  0.77842993     0.18800
C461        C  0.15509812  0.86322037  0.80769326    -0.09100
C462        C  0.15644791  0.86268325  0.86195169    -0.02100
H463        H  0.18590268  0.79015503  0.78361782     0.05300
C464        C  0.16625932  0.83881391  0.72024011     0.20800
H465        H  0.15313772  0.88708024  0.88116191     0.10500
C466        C  0.12933218  0.81272669  0.69094093    -0.15400
C467        C  0.12944342  0.81583024  0.63647187     0.03500
C468        C  0.16792658  0.84393926  0.60897308    -0.10800
C469        C  0.20339939  0.87258824  0.63940000    -0.00800
C470        C  0.20302529  0.86994274  0.69366164    -0.05900
H471        H  0.09976823  0.79064710  0.71068868     0.06500
H472        H  0.23106408  0.89918320  0.62187226     0.09900
Br473      Br  0.14073844  0.90228973  0.77482908    -0.05600
Br474      Br  0.19837093  0.77404091  0.89025261    -0.02600
Br475      Br  0.07459358  0.78383926  0.60317243     0.00300
Br476      Br  0.25313733  0.91134423  0.73023547    -0.04100
C477        C  0.16026124  0.82297827  0.11493121    -0.11500
C478        C  0.12236759  0.81516669  0.14077609     0.04000
C479        C  0.12307396  0.81964809  0.19385458    -0.12100
C480        C  0.15890516  0.82651768  0.22216436     0.18800
C481        C  0.19193548  0.82346747  0.19767190    -0.09100
C482        C  0.19209120  0.82123133  0.14422954    -0.02100
H483        H  0.09550168  0.81768539  0.21305201     0.05300
C484        C  0.15997724  0.83449436  0.27736995     0.20800
H485        H  0.21613868  0.81630635  0.12627275     0.10500
C486        C  0.12495493  0.80604727  0.30769562    -0.15400
C487        C  0.12537744  0.81215618  0.36046448     0.03500
C488        C  0.16377525  0.84393956  0.38425606    -0.10800
C489        C  0.19513734  0.87650789  0.35278028    -0.00800
C490        C  0.19359972  0.87199686  0.29952845    -0.05900
H491        H  0.09686878  0.77938623  0.29018139     0.06500
H492        H  0.21984935  0.90641759  0.36895291     0.09900
Br493      Br  0.23625147  0.82040915  0.23525561    -0.05600
Br494      Br  0.06767702  0.79519509  0.10771982    -0.02600
Br495      Br  0.07127636  0.77851178  0.39570086     0.00300
Br496      Br  0.23634095  0.91897346  0.25886329    -0.04100
C497        C  0.32453276  0.66468717  0.88656961    -0.11500
C498        C  0.31918182  0.69740523  0.86295758     0.03600
C499        C  0.32396357  0.70315599  0.80989499    -0.12100
C500        C  0.32833684  0.67357231  0.77961574     0.18800
C501        C  0.32447270  0.63618593  0.80195032    -0.09100
C502        C  0.32135584  0.63145555  0.85512356    -0.02100
H503        H  0.32274106  0.72985119  0.79193342     0.05300
C504        C  0.33273569  0.67982798  0.72417172     0.20800
H505        H  0.31510641  0.60109449  0.87135416     0.10500
C506        C  0.37170982  0.69041653  0.70070196    -0.15400
C507        C  0.37538132  0.69265157  0.64714704     0.03500
C508        C  0.33828043  0.68031318  0.61685713    -0.10800
C509        C  0.30261247  0.67845548  0.64144647    -0.00800
C510        C  0.29863746  0.67594832  0.69455238    -0.05900
H511        H  0.39935018  0.69753503  0.72416393     0.06500
H512        H  0.27772431  0.67965873  0.61980692     0.09900
Br513      Br  0.32164403  0.59023006  0.76135017    -0.05600
Br514      Br  0.30015270  0.73172204  0.89871347    -0.02600
Br515      Br  0.43268002  0.71943744  0.61953542     0.00300
Br516      Br  0.24550473  0.66551673  0.72440990    -0.04100
C517        C  0.33204721  0.66151161  0.11106770    -0.11500
C518        C  0.31975766  0.68786171  0.13879807     0.04000
C519        C  0.32277065  0.69072896  0.19320792    -0.12100
C520        C  0.33723994  0.66743286  0.22240430     0.18800
C521        C  0.34755707  0.63985901  0.19547837    -0.09100
C522        C  0.34361131  0.63620956  0.14142993    -0.02100
H523        H  0.31320407  0.71104416  0.21300414     0.05300
C524        C  0.33925006  0.67051789  0.28063948     0.20800
H525        H  0.34854080  0.61213696  0.12424844     0.10500
C526        C  0.31439168  0.63358347  0.31106443    -0.15400
C527        C  0.31593352  0.63495813  0.36545072     0.03500
C528        C  0.34016798  0.67484968  0.39197082    -0.10800
C529        C  0.36733563  0.71103119  0.36095831    -0.00800
C530        C  0.36697287  0.70923814  0.30654912    -0.05900
H531        H  0.29433982  0.60292949  0.29226428     0.06500
H532        H  0.39129759  0.74045110  0.37840588     0.09900
Br533      Br  0.36945716  0.60771521  0.23039584    -0.05600
Br534      Br  0.29619016  0.71943805  0.10585979    -0.02600
Br535      Br  0.28737808  0.57991424  0.39996568     0.00300
Br536      Br  0.40792153  0.75974067  0.26937747    -0.04100
C537        C  0.83238001  0.16031022  0.05061670     0.30500
C538        C  0.82934189  0.16273790  0.94439945     0.30500
C539        C  0.84931964  0.13354995  0.02054156    -0.05700
C540        C  0.78756995  0.14319718  0.02551472    -0.06500
C541        C  0.85955099  0.20534957  0.02424600    -0.06400
C542        C  0.84687214  0.13495274  0.96635548    -0.05700
C543        C  0.78709510  0.14568463  0.97207260    -0.06500
C544        C  0.85864603  0.20566047  0.97049691    -0.06400
C545        C  0.86814946  0.11578787  0.94516345    -0.31800
N546        N  0.88216586  0.10103501  0.98361309     0.14700
C547        C  0.87281502  0.11282228  0.02938292    -0.31800
H548        H  0.88498638  0.10838736  0.06540986     0.16700
C549        C  0.74568658  0.12870586  0.95554433    -0.30800
N550        N  0.72014783  0.11498984  0.99730796     0.13400
C551        C  0.74482742  0.12289017  0.04033054    -0.30800
C552        C  0.88456835  0.24724678  0.95342706    -0.31100
N553        N  0.89869364  0.27311028  0.99481852     0.13900
H554        H  0.89071816  0.25845316  0.91385571     0.16600
C555        C  0.88457048  0.24831158  0.03836752    -0.31100
H556        H  0.89094159  0.26079658  0.07726323     0.16600
H557        H  0.73254388  0.11408471  0.07926057     0.16600
H558        H  0.87585051  0.11489795  0.90508836     0.16600
H559        H  0.73470290  0.12493725  0.91602067     0.16600
C560        C  0.83977480  0.17787202  0.45214300     0.30500
C561        C  0.83819686  0.17699017  0.55855256     0.30500
C562        C  0.86353982  0.15746722  0.48004896    -0.05700
C563        C  0.85966126  0.22276569  0.47939075    -0.06500
C564        C  0.79461978  0.15394704  0.47823699    -0.06400
C565        C  0.86197474  0.15670804  0.53391399    -0.05700
C566        C  0.85814521  0.22100991  0.53328231    -0.06500
C567        C  0.79455010  0.15182898  0.53202046    -0.06400
C568        C  0.88241723  0.13567630  0.55171167    -0.31800
N569        N  0.89847165  0.12561662  0.51071858     0.14700
C570        C  0.88683067  0.13798851  0.46671441    -0.31800
H571        H  0.89454944  0.13294308  0.42801064     0.16700
C572        C  0.87530980  0.26180251  0.55270344    -0.30800
N573        N  0.88778988  0.28921499  0.51259576     0.13400
C574        C  0.87812121  0.26649736  0.46785001    -0.30800
C575        C  0.75297817  0.12528153  0.54824426    -0.31100
N576        N  0.72715737  0.11523283  0.50711442     0.13900
H577        H  0.74164410  0.11424554  0.58703200     0.16600
C578        C  0.75169622  0.13251777  0.46400961    -0.31100
H579        H  0.73923640  0.12913692  0.42526627     0.16600
H580        H  0.88345922  0.28143727  0.43031660     0.16600
H581        H  0.88539398  0.12804348  0.59139437     0.16600
H582        H  0.87911256  0.27101702  0.59288071     0.16600
C583        C  0.66442132  0.32867283  0.05693082     0.30500
C584        C  0.66333032  0.33224590  0.95061920     0.30500
C585        C  0.65000019  0.35859730  0.03445687    -0.05700
C586        C  0.70794362  0.34615945  0.03068927    -0.06500
C587        C  0.63696219  0.28627737  0.02974354    -0.06400
C588        C  0.64652548  0.35893013  0.98071864    -0.05700
C589        C  0.70787026  0.34843953  0.97672150    -0.06500
C590        C  0.63580336  0.28696310  0.97609389    -0.06400
C591        C  0.62338299  0.37996866  0.97230731    -0.31800
N592        N  0.61801767  0.39559859  0.01771963     0.14700
C593        C  0.63515312  0.38367085  0.05578202    -0.31800
H594        H  0.63362696  0.38984607  0.09630918     0.16700
C595        C  0.75058420  0.36883620  0.96189794    -0.30800
N596        N  0.77531351  0.37805705  0.00499714     0.13400
C597        C  0.74990609  0.36572187  0.04686991    -0.30800
C598        C  0.61166697  0.24388777  0.96191448    -0.31100
N599        N  0.59946432  0.21892250  0.00548650     0.13900
H600        H  0.60473981  0.23150002  0.92302451     0.16600
C601        C  0.61482002  0.24450505  0.04687726    -0.31100
H602        H  0.61151861  0.23333667  0.08641913     0.16600
H603        H  0.76202474  0.37356541  0.08578949     0.16600
H604        H  0.60875890  0.38185153  0.93680508     0.16600
H605        H  0.76281882  0.37715906  0.92292945     0.16600
C606        C  0.66917527  0.34532048  0.44225660     0.30500
C607        C  0.67052401  0.34515233  0.54863730     0.30500
C608        C  0.64336421  0.36210258  0.46859011    -0.05700
C609        C  0.65417029  0.30174004  0.46790224    -0.06500
C610        C  0.71373258  0.37240323  0.46637773    -0.06400
C611        C  0.64406872  0.36300545  0.52214222    -0.05700
C612        C  0.65329227  0.30070250  0.52168692    -0.06500
C613        C  0.71522402  0.37213504  0.52070152    -0.06400
C614        C  0.62197043  0.38370682  0.53584593    -0.31800
N615        N  0.60783032  0.39371875  0.49198825     0.14700
C616        C  0.62089403  0.38084965  0.45081240    -0.31800
H617        H  0.61580019  0.38628094  0.41098057     0.16700
C618        C  0.63487329  0.25743254  0.53492158    -0.30800
N619        N  0.62592845  0.23380088  0.49089090     0.13400
C620        C  0.63917240  0.26065294  0.45007992    -0.30800
C621        C  0.75867865  0.39088406  0.53243223    -0.31100
N622        N  0.78203194  0.40396332  0.48811270     0.13900
H623        H  0.77293734  0.39315939  0.56974500     0.16600
C624        C  0.75516367  0.39164544  0.44775221    -0.31100
H625        H  0.76560902  0.39400676  0.40823322     0.16600
H626        H  0.63559109  0.25046217  0.41027556     0.16600
H627        H  0.61716022  0.39158216  0.57457279     0.16600
H628        H  0.62750784  0.24393619  0.57347276     0.16600
O629        O  0.94160582  0.01424128  0.03100026    -0.87900
C630        C  0.93354588  0.42929892  0.92017129     0.88100
Mg631      Mg  0.98922781  0.08196384  0.02722871     1.58100
O632        O  0.97856704  0.42378203  0.04011605    -0.87600
O633        O  0.91737659  0.45875887  0.08243519    -0.75000
C634        C  0.67447650  0.09243368  0.99508768     0.93200
O635        O  0.96288821  0.03510792  0.90958070    -0.74800
O636        O  0.65546621  0.11206436  0.97931099    -0.82300
Mg637      Mg  0.90582289  0.48848689  0.96049351     1.58000
C638        C  0.59373501  0.41676970  0.02437254     0.93100
O639        O  0.84128295  0.44014343  0.99450593    -0.80500
H640        H  0.97330124  0.41036078  0.11554018    -0.05900
C641        C  0.56776115  0.99491463  0.92812847     0.88000
O642        O  0.53278918  0.07364202  0.08501535    -0.75000
O643        O  0.92559228  0.44043204  0.96159362    -0.87800
O644        O  0.55403949  0.39602590  0.01336347    -0.80600
C645        C  0.91973954  0.31909337  0.99202147     0.93200
C646        C  0.82104757  0.40053775  0.00717949     0.93100
Mg647      Mg  0.58955072  0.00457496  0.04248889     1.58000
O648        O  0.65427450  0.05335728  0.00982245    -0.80500
O649        O  0.53235357  0.45758447  0.09265236    -0.74800
O650        O  0.89816300  0.33752512  0.00141886    -0.80600
O651        O  0.88371739  0.03777860  0.96800557    -0.82300
O652        O  0.59856287  0.15399807  0.00003112    -0.80700
C653        C  0.49364832  0.42931256  0.08391907     0.87500
O654        O  0.56957013  0.05213775  0.04032105    -0.87800
O655        O  0.55423711  0.47885292  0.97094238    -0.87900
O656        O  0.57866631  0.03373195  0.91876258    -0.75000
Mg657      Mg  0.91107031  0.40283278  0.03310484     1.58000
O658        O  0.95937964  0.34016128  0.98093166    -0.82300
H659        H  0.92720423  0.01722075  0.10474006    -0.06100
O660        O  0.51733054  0.06807863  0.96139441    -0.87600
H661        H  0.52217945  0.08138453  0.88593940    -0.05900
H662        H  0.57853324  0.06335394  0.11601757    -0.06100
C663        C  0.00193819  0.06270667  0.91777766     0.87500
C664        C  0.92845153  0.49777948  0.07377759     0.88100
C665        C  0.56151524  0.06335106  0.08168028     0.88100
H666        H  0.56922978  0.47519577  0.89767910    -0.06000
O667        O  0.96237280  0.41917390  0.91668549    -0.75100
Mg668      Mg  0.58468128  0.08920594  0.96812313     1.58000
H669        H  0.91627100  0.42907614  0.88597042    -0.06100
C670        C  0.90473488  0.07809709  0.97696359     0.93100
O671        O  0.53776727  0.15268474  0.01868219    -0.82300
C672        C  0.57753115  0.17303443  0.00827335     0.93200
O673        O  0.84005994  0.38036126  0.02117235    -0.82300
Mg674      Mg  0.50713496  0.41128926  0.97317822     1.58200
O675        O  0.94522295  0.09839893  0.98196199    -0.80600
O676        O  0.61283926  0.45627113  0.03735907    -0.82300
O677        O  0.98624666  0.06539071  0.46296564    -0.87900
C678        C  0.57202608  0.08035479  0.57817882     0.88100
Mg679      Mg  0.91866791  0.01677621  0.46513695     1.58100
O680        O  0.57735880  0.02950692  0.46323883    -0.87600
O681        O  0.54205306  0.08852383  0.41313400    -0.75000
C682        C  0.91044240  0.33496634  0.51667660     0.93200
O683        O  0.96453724  0.04781655  0.58490181    -0.74800
O684        O  0.88988512  0.35399611  0.52738313    -0.82300
Mg685      Mg  0.51165809  0.10356144  0.53280404     1.58000
C686        C  0.58547134  0.41685546  0.48892892     0.93100
O687        O  0.56182920  0.16872253  0.49884110    -0.80500
H688        H  0.59028600  0.03140969  0.38806704    -0.05900
C689        C  0.00617736  0.44669273  0.58020558     0.88000
O690        O  0.92801281  0.47074329  0.41308742    -0.75000
O691        O  0.55952209  0.08420552  0.53539855    -0.87800
O692        O  0.60555552  0.45655972  0.50037816    -0.80600
C693        C  0.68144255  0.09264693  0.51025769     0.93200
C694        C  0.60150519  0.18792850  0.48707023     0.93100
Mg695      Mg  0.99735883  0.41849483  0.46820222     1.58000
O696        O  0.95041996  0.35526769  0.50717790    -0.80500
O697        O  0.54309919  0.47326702  0.41414967    -0.74800
O698        O  0.66199372  0.11239926  0.49712449    -0.80600
O699        O  0.96194567  0.12471088  0.52406356    -0.82300
O700        O  0.84750052  0.40724835  0.49769873    -0.80700
C701        C  0.57157467  0.51239267  0.42066041     0.87500
O702        O  0.94957278  0.43742121  0.46445297    -0.87800
O703        O  0.52302326  0.45783568  0.53733004    -0.87900
O704        O  0.96703581  0.43498799  0.58692794    -0.75000
Mg705      Mg  0.59731897  0.09686647  0.46477262     1.58000
O706        O  0.66158704  0.05358489  0.52542310    -0.82300
H707        H  0.98413641  0.07754719  0.38804943    -0.06100
O708        O  0.93093269  0.49173987  0.53543144    -0.87600
H709        H  0.91688136  0.48964693  0.61023297    -0.05900
H710        H  0.93891965  0.42329148  0.38946223    -0.06100
C711        C  0.93612592  0.00872087  0.57799474     0.87500
C712        C  0.50312575  0.07740500  0.42024729     0.88100
C713        C  0.93849915  0.44248223  0.42125286     0.88100
H714        H  0.52535387  0.44775993  0.61284215    -0.06000
O715        O  0.58321586  0.05263826  0.58614198    -0.75100
Mg716      Mg  0.91148187  0.42460040  0.53421433     1.58000
H717        H  0.57252819  0.10026752  0.60966770    -0.06100
C718        C  0.92207025  0.10361136  0.51334260     0.93100
O719        O  0.84750997  0.46649999  0.47193352    -0.82300
C720        C  0.82780969  0.42678281  0.48472097     0.93200
O721        O  0.62025556  0.16775417  0.47312759    -0.82300
Mg722      Mg  0.59054678  0.50520698  0.53432238     1.58200
O723        O  0.90246693  0.06365431  0.50280754    -0.80600
O724        O  0.54612144  0.39693913  0.47634525    -0.82300
C725        C  0.66487364  0.33385303  0.89003793    -0.11500
C726        C  0.67698292  0.30847987  0.85997714     0.04000
C727        C  0.67641797  0.30969873  0.80531879    -0.12100
C728        C  0.66486053  0.33645139  0.77843042     0.18800
C729        C  0.65509776  0.36322011  0.80769376    -0.09100
C730        C  0.65644760  0.36268303  0.86195221    -0.02100
H731        H  0.68590345  0.29015571  0.78361832     0.05300
C732        C  0.66625920  0.33881394  0.72024060     0.20800
H733        H  0.65313713  0.38707961  0.88116221     0.10500
C734        C  0.62933213  0.31272643  0.69094148    -0.15400
C735        C  0.62944325  0.31583001  0.63647244     0.03500
C736        C  0.66792628  0.34393932  0.60897359    -0.10800
C737        C  0.70339898  0.37258864  0.63940043    -0.00800
C738        C  0.70302494  0.36994314  0.69366209    -0.05900
H739        H  0.59976821  0.29064649  0.71068933     0.06500
H740        H  0.73106339  0.39918367  0.62187268     0.09900
Br741      Br  0.64073754  0.40228908  0.77482962    -0.05600
Br742      Br  0.69837194  0.27404167  0.89025300    -0.02600
Br743      Br  0.57459341  0.28383870  0.60317311     0.00300
Br744      Br  0.75313670  0.41134513  0.73023591    -0.04100
C745        C  0.66026119  0.32297785  0.11493171    -0.11500
C746        C  0.62236747  0.31516610  0.14077661     0.04000
C747        C  0.62307370  0.31964704  0.19385517    -0.12100
C748        C  0.65890484  0.32651648  0.22216492     0.18800
C749        C  0.69193521  0.32346642  0.19767234    -0.09100
C750        C  0.69209107  0.32123071  0.14422995    -0.02100
H751        H  0.59550131  0.31768420  0.21305268     0.05300
C752        C  0.65997705  0.33449330  0.27737050     0.20800
H753        H  0.71613869  0.31630592  0.12627299     0.10500
C754        C  0.62495468  0.30604646  0.30769629    -0.15400
C755        C  0.62537720  0.31215571  0.36046510     0.03500
C756        C  0.66377499  0.34393925  0.38425654    -0.10800
C757        C  0.69513720  0.37650729  0.35278057    -0.00800
C758        C  0.69359961  0.37199585  0.29952879    -0.05900
H759        H  0.59686863  0.27938548  0.29018229     0.06500
H760        H  0.71984908  0.40641694  0.36895286     0.09900
Br761      Br  0.73625113  0.32040792  0.23525597    -0.05600
Br762      Br  0.56767702  0.29519483  0.10772021    -0.02600
Br763      Br  0.57127618  0.27851126  0.39570162     0.00300
Br764      Br  0.73634101  0.41897210  0.25886335    -0.04100
C765        C  0.82453297  0.16468729  0.88656932    -0.11500
C766        C  0.81918157  0.19740508  0.86295735     0.03600
C767        C  0.82396313  0.20315581  0.80989475    -0.12100
C768        C  0.82833672  0.17357234  0.77961545     0.18800
C769        C  0.82447299  0.13618613  0.80195000    -0.09100
C770        C  0.82135629  0.13145578  0.85512324    -0.02100
H771        H  0.82274027  0.22985084  0.79193320     0.05300
C772        C  0.83273553  0.17982803  0.72417142     0.20800
H773        H  0.81510708  0.10109478  0.87135383     0.10500
C774        C  0.87170974  0.19041685  0.70070166    -0.15400
C775        C  0.87538121  0.19265181  0.64714675     0.03500
C776        C  0.83828028  0.18031317  0.61685681    -0.10800
C777        C  0.80261220  0.17845522  0.64144616    -0.00800
C778        C  0.79863717  0.17594803  0.69455206    -0.05900
H779        H  0.89935010  0.19753556  0.72416359     0.06500
H780        H  0.77772384  0.17965832  0.61980650     0.09900
Br781      Br  0.82164469  0.09023045  0.76134979    -0.05600
Br782      Br  0.80015208  0.23172152  0.89871339    -0.02600
Br783      Br  0.93267992  0.21943787  0.61953509     0.00300
Br784      Br  0.74550428  0.16551590  0.72440969    -0.04100
C785        C  0.83204731  0.16151163  0.11106744    -0.11500
C786        C  0.81975763  0.18786154  0.13879800     0.04000
C787        C  0.82277080  0.19072876  0.19320788    -0.12100
C788        C  0.83724042  0.16743282  0.22240404     0.18800
C789        C  0.84755764  0.13985915  0.19547790    -0.09100
C790        C  0.84361164  0.13620967  0.14142948    -0.02100
H791        H  0.81320410  0.21104385  0.21300430     0.05300
C792        C  0.83925072  0.17051775  0.28063923     0.20800
H793        H  0.84854099  0.11213725  0.12424809     0.10500
C794        C  0.81439232  0.13358332  0.31106413    -0.15400
C795        C  0.81593408  0.13495795  0.36545042     0.03500
C796        C  0.84016848  0.17484950  0.39197055    -0.10800
C797        C  0.86733631  0.21103097  0.36095810    -0.00800
C798        C  0.86697369  0.20923793  0.30654892    -0.05900
H799        H  0.79434038  0.10292924  0.29226386     0.06500
H800        H  0.89129836  0.24045091  0.37840581     0.09900
Br801      Br  0.86945832  0.10771566  0.23039489    -0.05600
Br802      Br  0.79618963  0.21943748  0.10585991    -0.02600
Br803      Br  0.78737846  0.07991407  0.39996538     0.00300
Br804      Br  0.90792283  0.25974022  0.26937732    -0.04100
C805        C  0.83237959  0.66030978  0.05061633     0.30500
C806        C  0.82934130  0.66273730  0.94439908     0.30500
C807        C  0.84931903  0.63354933  0.02054123    -0.05700
C808        C  0.78756953  0.64319685  0.02551444    -0.06500
C809        C  0.85955066  0.70534905  0.02424554    -0.06400
C810        C  0.84687142  0.63495202  0.96635513    -0.05700
C811        C  0.78709456  0.64568422  0.97207233    -0.06500
C812        C  0.85864561  0.70565990  0.97049647    -0.06400
C813        C  0.86814903  0.61578745  0.94516316    -0.31800
N814        N  0.88216575  0.60103491  0.98361276     0.14700
C815        C  0.87281479  0.61282210  0.02938260    -0.31800
H816        H  0.88498640  0.60838748  0.06540983     0.16700
C817        C  0.74568599  0.62870550  0.95554423    -0.30800
N818        N  0.72014734  0.61498957  0.99730792     0.13400
C819        C  0.74482702  0.62288989  0.04033046    -0.30800
C820        C  0.88456792  0.74724624  0.95342656    -0.31100
N821        N  0.89869327  0.77310974  0.99481808     0.13900
H822        H  0.89071760  0.75845255  0.91385551     0.16600
C823        C  0.88457021  0.74831104  0.03836703    -0.31100
H824        H  0.89094141  0.76079607  0.07726286     0.16600
H825        H  0.73254369  0.61408451  0.07926017     0.16600
H826        H  0.87585019  0.61489760  0.90508771     0.16600
H827        H  0.73470219  0.62493682  0.91602051     0.16600
C828        C  0.83977445  0.67787198  0.45214270     0.30500
C829        C  0.83819674  0.67699014  0.55855226     0.30500
C830        C  0.86353955  0.65746719  0.48004853    -0.05700
C831        C  0.85966096  0.72276566  0.47939049    -0.06500
C832        C  0.79461948  0.65394698  0.47823682    -0.06400
C833        C  0.86197456  0.65670803  0.53391354    -0.05700
C834        C  0.85814504  0.72100987  0.53328204    -0.06500
C835        C  0.79454990  0.65182893  0.53202029    -0.06400
C836        C  0.88241711  0.63567633  0.55171122    -0.31800
N837        N  0.89847156  0.62561672  0.51071801     0.14700
C838        C  0.88683044  0.63798854  0.46671393    -0.31800
H839        H  0.89454921  0.63294308  0.42800993     0.16700
C840        C  0.87530986  0.76180247  0.55270322    -0.30800
N841        N  0.88778996  0.78921497  0.51259561     0.13400
C842        C  0.87812105  0.76649737  0.46784978    -0.30800
C843        C  0.75297797  0.62528150  0.54824419    -0.31100
N844        N  0.72715710  0.61523275  0.50711436     0.13900
H845        H  0.74164398  0.61424563  0.58703190     0.16600
C846        C  0.75169591  0.63251768  0.46400954    -0.31100
H847        H  0.73923604  0.62913682  0.42526619     0.16600
H848        H  0.88345900  0.78143724  0.43031670     0.16600
H849        H  0.88539384  0.62804356  0.59139342     0.16600
H850        H  0.87911281  0.77101699  0.59288063     0.16600
C851        C  0.66442097  0.82867277  0.05693057     0.30500
C852        C  0.66332991  0.83224566  0.95061895     0.30500
C853        C  0.65000008  0.85859738  0.03445654    -0.05700
C854        C  0.70794320  0.84615911  0.03068901    -0.06500
C855        C  0.63696164  0.78627729  0.02974341    -0.06400
C856        C  0.64652534  0.85893015  0.98071831    -0.05700
C857        C  0.70786983  0.84843909  0.97672124    -0.06500
C858        C  0.63580275  0.78696292  0.97609374    -0.06400
C859        C  0.62338305  0.87996886  0.97230691    -0.31800
N860        N  0.61801788  0.89559891  0.01771919     0.14700
C861        C  0.63515321  0.88367111  0.05578163    -0.31800
H862        H  0.63362706  0.88984639  0.09630878     0.16700
C863        C  0.75058379  0.86883573  0.96189768    -0.30800
N864        N  0.77531308  0.87805662  0.00499695     0.13400
C865        C  0.74990566  0.86572155  0.04686967    -0.30800
C866        C  0.61166631  0.74388757  0.96191452    -0.31100
N867        N  0.59946376  0.71892236  0.00548652     0.13900
H868        H  0.60473899  0.73149958  0.92302411     0.16600
C869        C  0.61481954  0.74450500  0.04687725    -0.31100
H870        H  0.61151829  0.73333673  0.08641902     0.16600
H871        H  0.76202432  0.87356523  0.08578932     0.16600
H872        H  0.60875898  0.88185175  0.93680463     0.16600
H873        H  0.76281834  0.87715851  0.92292945     0.16600
C874        C  0.66917535  0.84532046  0.44225626     0.30500
C875        C  0.67052414  0.84515212  0.54863696     0.30500
C876        C  0.64336462  0.86210288  0.46858991    -0.05700
C877        C  0.65416998  0.80173989  0.46790180    -0.06500
C878        C  0.71373272  0.87240282  0.46637738    -0.06400
C879        C  0.64406917  0.86300567  0.52214201    -0.05700
C880        C  0.65329202  0.80070230  0.52168647    -0.06500
C881        C  0.71522419  0.87213453  0.52070116    -0.06400
C882        C  0.62197088  0.88370700  0.53584591    -0.31800
N883        N  0.60783069  0.89371898  0.49198829     0.14700
C884        C  0.62089437  0.88084994  0.45081237    -0.31800
H885        H  0.61580032  0.88628118  0.41098041     0.16700
C886        C  0.63487291  0.75743231  0.53492108    -0.30800
N887        N  0.62592789  0.73380066  0.49089041     0.13400
C888        C  0.63917183  0.76065274  0.45007936    -0.30800
C889        C  0.75867884  0.89088359  0.53243183    -0.31100
N890        N  0.78203209  0.90396291  0.48811224     0.13900
H891        H  0.77293755  0.89315895  0.56974441     0.16600
C892        C  0.75516379  0.89164508  0.44775181    -0.31100
H893        H  0.76560916  0.89400659  0.40823257     0.16600
H894        H  0.63559049  0.75046211  0.41027548     0.16600
H895        H  0.61716063  0.89158215  0.57457269     0.16600
H896        H  0.62750756  0.74393598  0.57347227     0.16600
O897        O  0.94160605  0.51424168  0.03100010    -0.87900
C898        C  0.93354479  0.92929826  0.92017124     0.88100
Mg899      Mg  0.98922794  0.58196427  0.02722840     1.58100
O900        O  0.97856663  0.92378152  0.04011558    -0.87600
O901        O  0.91737621  0.95875843  0.08243534    -0.75000
C902        C  0.67447602  0.59243342  0.99508789     0.93200
O903        O  0.96288858  0.53510800  0.90958048    -0.74800
O904        O  0.65546571  0.61206409  0.97931116    -0.82300
Mg905      Mg  0.90582254  0.98848668  0.96049369     1.58000
C906        C  0.59373528  0.91677004  0.02437210     0.93100
O907        O  0.84128251  0.94014297  0.99450565    -0.80500
H908        H  0.97330107  0.91036046  0.11553988    -0.05900
C909        C  0.56776086  0.49491442  0.92812863     0.88000
O910        O  0.53278877  0.57364186  0.08501536    -0.75000
O911        O  0.92559179  0.94043172  0.96159368    -0.87800
O912        O  0.55403977  0.89602625  0.01336303    -0.80600
C913        C  0.91973909  0.81909283  0.99202106     0.93200
C914        C  0.82104713  0.90053734  0.00717938     0.93100
Mg915      Mg  0.58955027  0.50457466  0.04248919     1.58000
O916        O  0.65427404  0.55335708  0.00982283    -0.80500
O917        O  0.53235418  0.95758485  0.09265218    -0.74800
O918        O  0.89816268  0.83752455  0.00141943    -0.80600
O919        O  0.88371758  0.53777869  0.96800517    -0.82300
O920        O  0.59856237  0.65399791  0.00003142    -0.80700
C921        C  0.49364893  0.92931286  0.08391901     0.87500
O922        O  0.56956958  0.55213741  0.04032110    -0.87800
O923        O  0.55423732  0.97885317  0.97094216    -0.87900
O924        O  0.57866580  0.53373172  0.91876277    -0.75000
Mg925      Mg  0.91106991  0.90283237  0.03310491     1.58000
O926        O  0.95937903  0.84016077  0.98093045    -0.82300
H927        H  0.92720446  0.51722133  0.10474020    -0.06100
O928        O  0.51733004  0.56807849  0.96139445    -0.87600
H929        H  0.52217874  0.58138423  0.88593964    -0.05900
H930        H  0.57853271  0.56335374  0.11601738    -0.06100
C931        C  0.00193857  0.56270683  0.91777753     0.87500
C932        C  0.92845124  0.99777911  0.07377782     0.88100
C933        C  0.56151479  0.56335082  0.08168035     0.88100
H934        H  0.56923002  0.97519575  0.89767873    -0.06000
O935        O  0.96237158  0.91917315  0.91668493    -0.75100
Mg936      Mg  0.58468078  0.58920573  0.96812327     1.58000
H937        H  0.91626939  0.92907524  0.88597055    -0.06100
C938        C  0.90473494  0.57809718  0.97696320     0.93100
O939        O  0.53776671  0.65268458  0.01868219    -0.82300
C940        C  0.57753062  0.67303428  0.00827350     0.93200
O941        O  0.84005949  0.88036089  0.02117256    -0.82300
Mg942      Mg  0.50713523  0.91128951  0.97317796     1.58200
O943        O  0.94522303  0.59839916  0.98196140    -0.80600
O944        O  0.61283957  0.95627145  0.03735864    -0.82300
O945        O  0.98624674  0.56539066  0.46296556    -0.87900
C946        C  0.57202590  0.58035469  0.57817844     0.88100
Mg947      Mg  0.91866793  0.51677627  0.46513688     1.58100
O948        O  0.57735862  0.52950682  0.46323843    -0.87600
O949        O  0.54205253  0.58852345  0.41313374    -0.75000
C950        C  0.91044253  0.83496631  0.51667649     0.93200
O951        O  0.96453728  0.54781690  0.58490176    -0.74800
O952        O  0.88988522  0.85399609  0.52738273    -0.82300
Mg953      Mg  0.51165780  0.60356121  0.53280388     1.58000
C954        C  0.58547163  0.91685561  0.48892923     0.93100
O955        O  0.56182869  0.66872227  0.49884070    -0.80500
H956        H  0.59028642  0.53140989  0.38806660    -0.05900
C957        C  0.00617749  0.94669266  0.58020530     0.88000
O958        O  0.92801295  0.97074337  0.41308737    -0.75000
O959        O  0.55952186  0.58420537  0.53539817    -0.87800
O960        O  0.60555577  0.95655986  0.50037851    -0.80600
C961        C  0.68144226  0.59264683  0.51025758     0.93200
C962        C  0.60150467  0.68792826  0.48706976     0.93100
Mg963      Mg  0.99735883  0.91849465  0.46820204     1.58000
O964        O  0.95042017  0.85526765  0.50717824    -0.80500
O965        O  0.54309906  0.97326695  0.41415029    -0.74800
O966        O  0.66199342  0.61239909  0.49712408    -0.80600
O967        O  0.96194564  0.62471109  0.52406311    -0.82300
O968        O  0.84750075  0.90724812  0.49769797    -0.80700
C969        C  0.57157458  0.01239266  0.42066080     0.87500
O970        O  0.94957283  0.93742110  0.46445278    -0.87800
O971        O  0.52302354  0.95783589  0.53733063    -0.87900
O972        O  0.96703595  0.93498790  0.58692768    -0.75000
Mg973      Mg  0.59731862  0.59686629  0.46477222     1.58000
O974        O  0.66158677  0.55358480  0.52542301    -0.82300
H975        H  0.98413649  0.57754670  0.38804899    -0.06100
O976        O  0.93093268  0.99173967  0.53543131    -0.87600
H977        H  0.91688125  0.98964642  0.61023300    -0.05900
H978        H  0.93891983  0.92329161  0.38946195    -0.06100
C979        C  0.93612594  0.50872118  0.57799483     0.87500
C980        C  0.50312524  0.57740466  0.42024707     0.88100
C981        C  0.93849927  0.94248229  0.42125270     0.88100
H982        H  0.52535428  0.94776061  0.61284320    -0.06000
O983        O  0.58321559  0.55263809  0.58614162    -0.75100
Mg984      Mg  0.91148194  0.92460026  0.53421404     1.58000
H985        H  0.57252808  0.60026742  0.60966719    -0.06100
C986        C  0.92207023  0.60361154  0.51334209     0.93100
O987        O  0.84751001  0.96649983  0.47193354    -0.82300
C988        C  0.82780983  0.92678255  0.48472057     0.93200
O989        O  0.62025506  0.66775396  0.47312717    -0.82300
Mg990      Mg  0.59054705  0.00520713  0.53432274     1.58200
O991        O  0.90246697  0.56365448  0.50280710    -0.80600
O992        O  0.54612167  0.89693921  0.47634581    -0.82300
C993        C  0.66487317  0.83385275  0.89003766    -0.11500
C994        C  0.67698205  0.80847925  0.85997689     0.04000
C995        C  0.67641711  0.80969810  0.80531856    -0.12100
C996        C  0.66486009  0.83645104  0.77843014     0.18800
C997        C  0.65509768  0.86322005  0.80769344    -0.09100
C998        C  0.65644750  0.86268299  0.86195190    -0.02100
H999        H  0.68590229  0.79015480  0.78361809     0.05300
C1000       C  0.66625889  0.83881357  0.72024030     0.20800
H1001       H  0.65313732  0.88707979  0.88116191     0.10500
C1002       C  0.62933178  0.81272650  0.69094104    -0.15400
C1003       C  0.62944311  0.81583007  0.63647200     0.03500
C1004       C  0.66792636  0.84393901  0.60897327    -0.10800
C1005       C  0.70339915  0.87258788  0.63940026    -0.00800
C1006       C  0.70302495  0.86994236  0.69366189    -0.05900
H1007       H  0.59976756  0.79064682  0.71068887     0.06500
H1008       H  0.73106402  0.89918288  0.62187250     0.09900
Br1009     Br  0.64073803  0.90228940  0.77482916    -0.05600
Br1010     Br  0.69837053  0.77404062  0.89025277    -0.02600
Br1011     Br  0.57459332  0.78383924  0.60317242     0.00300
Br1012     Br  0.75313694  0.91134373  0.73023589    -0.04100
C1013       C  0.66026091  0.82297795  0.11493145    -0.11500
C1014       C  0.62236729  0.81516651  0.14077633     0.04000
C1015       C  0.62307369  0.81964787  0.19385481    -0.12100
C1016       C  0.65890488  0.82651743  0.22216455     0.18800
C1017       C  0.69193510  0.82346702  0.19767210    -0.09100
C1018       C  0.69209078  0.82123085  0.14422977    -0.02100
H1019       H  0.59550136  0.81768523  0.21305231     0.05300
C1020       C  0.65997709  0.83449423  0.27737011     0.20800
H1021       H  0.71613835  0.81630580  0.12627284     0.10500
C1022       C  0.62495475  0.80604726  0.30769581    -0.15400
C1023       C  0.62537730  0.81215623  0.36046465     0.03500
C1024       C  0.66377513  0.84393952  0.38425621    -0.10800
C1025       C  0.69513734  0.87650778  0.35278042    -0.00800
C1026       C  0.69359967  0.87199667  0.29952856    -0.05900
H1027       H  0.59686861  0.77938633  0.29018166     0.06500
H1028       H  0.71984917  0.90641721  0.36895285     0.09900
Br1029     Br  0.73625094  0.82040849  0.23525587    -0.05600
Br1030     Br  0.56767683  0.79519532  0.10771993    -0.02600
Br1031     Br  0.57127618  0.77851203  0.39570100     0.00300
Br1032     Br  0.73634106  0.91897310  0.25886334    -0.04100
C1033       C  0.82453238  0.66468668  0.88656894    -0.11500
C1034       C  0.81918107  0.69740453  0.86295699     0.03600
C1035       C  0.82396284  0.70315541  0.80989442    -0.12100
C1036       C  0.82833654  0.67357202  0.77961509     0.18800
C1037       C  0.82447274  0.63618576  0.80194958    -0.09100
C1038       C  0.82135585  0.63145526  0.85512281    -0.02100
H1039       H  0.82274007  0.72985053  0.79193291     0.05300
C1040       C  0.83273548  0.67982784  0.72417108     0.20800
H1041       H  0.81510669  0.60109430  0.87135331     0.10500
C1042       C  0.87170966  0.69041649  0.70070137    -0.15400
C1043       C  0.87538120  0.69265154  0.64714646     0.03500
C1044       C  0.83828031  0.68031314  0.61685649    -0.10800
C1045       C  0.80261237  0.67845544  0.64144580    -0.00800
C1046       C  0.79863726  0.67594814  0.69455167    -0.05900
H1047       H  0.89934995  0.69753499  0.72416335     0.06500
H1048       H  0.77772408  0.67965868  0.61980611     0.09900
Br1049     Br  0.82164474  0.59023024  0.76134932    -0.05600
Br1050     Br  0.80015151  0.73172089  0.89871304    -0.02600
Br1051     Br  0.93267995  0.71943752  0.61953493     0.00300
Br1052     Br  0.74550437  0.66551611  0.72440907    -0.04100
C1053       C  0.83204692  0.66151129  0.11106703    -0.11500
C1054       C  0.81975743  0.68786142  0.13879745     0.04000
C1055       C  0.82277049  0.69072867  0.19320732    -0.12100
C1056       C  0.83723973  0.66743249  0.22240365     0.18800
C1057       C  0.84755670  0.63985854  0.19547764    -0.09100
C1058       C  0.84361094  0.63620917  0.14142921    -0.02100
H1059       H  0.81320399  0.71104390  0.21300356     0.05300
C1060       C  0.83924997  0.67051755  0.28063887     0.20800
H1061       H  0.84854027  0.61213637  0.12424757     0.10500
C1062       C  0.81439165  0.63358314  0.31106389    -0.15400
C1063       C  0.81593353  0.63495786  0.36545018     0.03500
C1064       C  0.84016796  0.67484944  0.39197023    -0.10800
C1065       C  0.86733556  0.71103093  0.36095766    -0.00800
C1066       C  0.86697278  0.70923783  0.30654847    -0.05900
H1067       H  0.79433974  0.60292913  0.29226377     0.06500
H1068       H  0.89129753  0.74045091  0.37840522     0.09900
Br1069     Br  0.86945644  0.60771432  0.23039487    -0.05600
Br1070     Br  0.79618982  0.71943766  0.10585918    -0.02600
Br1071     Br  0.78737803  0.57991401  0.39996526     0.00300
Br1072     Br  0.90792138  0.75974034  0.26937671    -0.04100
loop_ 
_geom_bond_atom_site_label_1 
_geom_bond_atom_site_label_2 
_geom_bond_distance 
_geom_bond_site_symmetry_2 
_ccdc_geom_bond_type 
C1            C3   1.584       .  S
C1            C5   1.560       .  S
C1            C4   1.555       .  S
C1          C249   1.569       .  S
C2            C6   1.533       .  S
C2            C8   1.522       .  S
C2            C7   1.507       .  S
C2          C229   1.515       .  S
C3           C11   1.400       .  A
C3            C6   1.410   1_554  A
C4           C15   1.387       .  A
C4            C7   1.389   1_554  A
C5           C19   1.388       .  A
C5            C8   1.394   1_554  A
C6            C9   1.380       .  A
C7           C13   1.368       .  A
C8           C16   1.373       .  A
C9           N10   1.340       .  A
C9           H22   1.081       .  S
N10          C11   1.361   1_556  A
N10         C134   1.432       .  S
C11          H12   1.077       .  S
C13          N14   1.343       .  A
C13          H23   1.083       .  S
N14          C15   1.366   1_556  A
N14          C98   1.425       .  S
C15          H21   1.083       .  S
C16          N17   1.344       .  A
C16          H18   1.082       .  S
N17          C19   1.364   1_556  A
N17         C109   1.428       .  S
C19          H20   1.082       .  S
C24          C26   1.557       .  S
C24          C28   1.561       .  S
C24          C27   1.567       .  S
C24         C260   1.565       .  S
C25          C29   1.521       .  S
C25          C31   1.530       .  S
C25          C30   1.512       .  S
C25         C240   1.517       .  S
C26          C34   1.383       .  A
C26          C29   1.398       .  A
C27          C38   1.392       .  A
C27          C30   1.398       .  A
C28          C42   1.389       .  A
C28          C31   1.396       .  A
C29          C32   1.373       .  A
C30          C36   1.369       .  A
C31          C39   1.375       .  A
C32          N33   1.347       .  A
C32          H45   1.083       .  S
N33          C34   1.363       .  A
N33         C182   1.426       .  S
C34          H35   1.082       .  S
C36          N37   1.340       .  A
C36          H46   1.082       .  S
N37          C38   1.362       .  A
N37         C146   1.423       .  S
C38          H44   1.078       .  S
C39          N40   1.341       .  A
C39          H41   1.081       .  S
N40          C42   1.364       .  A
N40         C157   1.427       .  S
C42          H43   1.082       .  S
C47          C49   1.524       .  S
C47          C51   1.511       .  S
C47          C50   1.526       .  S
C47         C209   1.514       .  S
C48          C52   1.578       .  S
C48          C54   1.558       .  S
C48          C53   1.562       .  S
C48         C189   1.572       .  S
C49          C57   1.377       .  A
C49          C52   1.399   1_554  A
C50          C61   1.376       .  A
C50          C53   1.401   1_554  A
C51          C65   1.367       .  A
C51          C54   1.392   1_554  A
C52          C55   1.397       .  A
C53          C59   1.386       .  A
C54          C62   1.390       .  A
C55          N56   1.363   1_556  A
C55          H68   1.079       .  S
N56          C57   1.342       .  A
N56         C102   1.432       .  S
C57          H58   1.082       .  S
C59          N60   1.363   1_556  A
C59          H69   1.082       .  S
N60          C61   1.343       .  A
N60         C110   1.427       .  S
C61          H67   1.080       .  S
C62          N63   1.366   1_556  A
C62          H64   1.081       .  S
N63          C65   1.341       .  A
N63         C136   1.424       .  S
C65          H66   1.083       .  S
C70          C72   1.507       .  S
C70          C74   1.533       .  S
C70          C73   1.522       .  S
C70         C220   1.514       .  S
C71          C75   1.551       .  S
C71          C77   1.577       .  S
C71          C76   1.559       .  S
C71         C200   1.567       .  S
C72          C80   1.368       .  A
C72          C75   1.389       .  A
C73          C84   1.372       .  A
C73          C76   1.395       .  A
C74          C88   1.380       .  A
C74          C77   1.410       .  A
C75          C78   1.385       .  A
C76          C82   1.388       .  A
C77          C85   1.394       .  A
C78          N79   1.365       .  A
C78          H91   1.082       .  S
N79          C80   1.343       .  A
N79         C150   1.423       .  S
C80          H81   1.083       .  S
C82          N83   1.364       .  A
C82          H92   1.082       .  S
N83          C84   1.343       .  A
N83         C158   1.427       .  S
C84          H90   1.083       .  S
C85          N86   1.360       .  A
C85          H87   1.079       .  S
N86          C88   1.342       .  A
N86         C184   1.430       .  S
C88          H89   1.080       .  S
O93         Mg95   2.158       .  S
O93        Mg369   2.162   1_544  S
O93         C396   1.231   1_545  S
C94         H133   1.081       .  S
C94         O107   1.232       .  S
C94         O131   1.267       .  A
Mg95        O660   2.172   1_554  S
Mg95        O139   2.277   1_554  S
Mg95        O671   2.252       .  S
Mg95        O642   2.296       .  S
O96        Mg121   2.165       .  S
O96        Mg674   2.181   1_554  S
O96         C653   1.232       .  S
O97         C128   1.267       .  A
O97        Mg121   2.299       .  S
C98         O100   1.273       .  A
C98         O112   1.268   1_556  A
O99         C127   1.267       .  A
O99        Mg369   2.300   1_545  S
O100       Mg132   2.274       .  S
Mg101       O107   2.175       .  S
Mg101       O361   2.162   1_556  S
Mg101       O103   2.264       .  S
Mg101       O367   2.300       .  S
Mg101       O383   2.288       .  S
C102        O140   1.272       .  A
C102        O108   1.271       .  A
O103        C110   1.269   1_556  A
H104        C653   1.080       .  S
C105        H398   1.082       .  S
C105        O387   1.230       .  S
C105        O120   1.264   1_565  A
O106        C129   1.268       .  A
O106       Mg631   2.296   1_455  S
O107       Mg121   2.190   1_556  S
O108       Mg138   2.276   1_554  S
C109        O122   1.269       .  A
C109        O114   1.275   1_556  A
C110        O137   1.275       .  A
Mg111       O118   2.164       .  S
Mg111       O387   2.178   1_544  S
Mg111       O112   2.259       .  S
Mg111       O381   2.296   1_545  S
Mg111       O408   2.282   1_545  S
O113        C117   1.267   1_455  A
O113       Mg379   2.296       .  S
O114       Mg121   2.304       .  S
O115        C134   1.273       .  A
O115       Mg369   2.288   1_545  S
O116        C136   1.271       .  A
O116       Mg132   2.278   1_554  S
C117        H640   1.080       .  S
C117        O632   1.232       .  S
O118       Mg132   2.195   1_554  S
O118        C129   1.233       .  S
O119       Mg138   2.148       .  S
O119       Mg379   2.178   1_556  S
O119        C373   1.230       .  S
O120       Mg132   2.289       .  S
Mg121       O137   2.288       .  S
O122       Mg674   2.255       .  S
H123        C396   1.082   1_545  S
O124       Mg132   2.158       .  S
O124       Mg631   2.172   1_456  S
O124        C663   1.232       .  S
H125        C663   1.080       .  S
H126        C129   1.081       .  S
C127        H661   1.080       .  S
C127        O660   1.232       .  S
C128        H391   1.082       .  S
C128        O361   1.231       .  S
H130        C373   1.082       .  S
O131       Mg674   2.300       .  S
C134        O139   1.269       .  A
O135        C136   1.268       .  A
O135       Mg631   2.252   1_455  S
Mg138       O632   2.181   1_456  S
Mg138       O658   2.255   1_455  S
Mg138       O667   2.300   1_455  S
O140       Mg379   2.282       .  S
O141       Mg143   2.169       .  S
O141       Mg685   2.180       .  S
O141        C712   1.231       .  S
C142        H181   1.082       .  S
C142        O155   1.230       .  S
C142        O179   1.265       .  A
Mg143       O440   2.170   1_545  S
Mg143       O187   2.267       .  S
Mg143       O451   2.282   1_545  S
Mg143       O422   2.292   1_545  S
O144       Mg169   2.147       .  S
O144       Mg454   2.188       .  S
O144        C433   1.232       .  S
O145        C176   1.266       .  A
O145       Mg169   2.293       .  S
C146        O148   1.269       .  A
C146        O160   1.270       .  A
O147        C175   1.266       .  A
O147       Mg685   2.295       .  S
O148       Mg180   2.252       .  S
Mg149       O155   2.165       .  S
Mg149       O677   2.180   1_455  S
Mg149       O151   2.288       .  S
Mg149       O683   2.295   1_455  S
Mg149       O699   2.285   1_455  S
C150        O188   1.270       .  A
C150        O156   1.267       .  A
O151        C158   1.274       .  A
H152        C433   1.080       .  S
C153        H714   1.081       .  S
C153        O703   1.232       .  S
C153        O168   1.267       .  A
O154        C177   1.266       .  A
O154       Mg411   2.292       .  S
O155       Mg169   2.190       .  S
O156       Mg186   2.256       .  S
C157        O170   1.271       .  A
C157        O162   1.269       .  A
C158        O185   1.270       .  A
Mg159       O166   2.152       .  S
Mg159       O703   2.184       .  S
Mg159       O160   2.268       .  S
Mg159       O697   2.293       .  S
Mg159       O724   2.262       .  S
O161        C165   1.266       .  A
O161       Mg695   2.293   1_455  S
O162       Mg169   2.270       .  S
O163        C182   1.275       .  A
O163       Mg685   2.285       .  S
O164        C184   1.269       .  A
O164       Mg180   2.274       .  S
C165        H420   1.080       .  S
C165        O412   1.232       .  S
O166       Mg180   2.176       .  S
O166        C177   1.232       .  S
O167       Mg186   2.158       .  S
O167       Mg695   2.184   1_455  S
O167        C689   1.232       .  S
O168       Mg180   2.297       .  S
Mg169       O185   2.256       .  S
O170       Mg454   2.269       .  S
H171        C712   1.081       .  S
O172       Mg180   2.144       .  S
O172       Mg411   2.170       .  S
O172        C443   1.231       .  S
H173        C443   1.080       .  S
H174        C177   1.082       .  S
C175        H441   1.080   1_545  S
C175        O440   1.231   1_545  S
C176        H707   1.081   1_455  S
C176        O677   1.231   1_455  S
H178        C689   1.081       .  S
O179       Mg454   2.293       .  S
C182        O187   1.270       .  A
O183        C184   1.273       .  A
O183       Mg411   2.282       .  S
Mg186       O412   2.188       .  S
Mg186       O438   2.269       .  S
Mg186       O447   2.293       .  S
O188       Mg695   2.262   1_455  S
C189        C190   1.428       .  A
C189        C194   1.415       .  A
C190        C191   1.418       .  A
C190       Br206   1.922       .  S
C191        C192   1.407       .  A
C191        H195   1.083       .  S
C192        C193   1.405       .  A
C192        C196   1.510       .  S
C193        C194   1.408       .  A
C193       Br205   1.919       .  S
C194        H197   1.068       .  S
C196        C198   1.406       .  A
C196        C202   1.408       .  A
C198        C199   1.416       .  A
C198        H203   1.083       .  S
C199        C200   1.427       .  A
C199       Br207   1.923       .  S
C200        C201   1.413       .  A
C201        C202   1.409       .  A
C201        H204   1.072       .  S
C202       Br208   1.918       .  S
C209        C210   1.419       .  A
C209        C214   1.404       .  A
C210        C211   1.385       .  A
C210       Br226   1.929       .  S
C211        C212   1.397       .  A
C211        H215   1.083       .  S
C212        C213   1.404       .  A
C212        C216   1.458       .  S
C213        C214   1.389       .  A
C213       Br225   1.922       .  S
C214        H217   1.076       .  S
C216        C218   1.397       .  A
C216        C222   1.405       .  A
C218        C219   1.386       .  A
C218        H223   1.084       .  S
C219        C220   1.419       .  A
C219       Br227   1.929       .  S
C220        C221   1.404       .  A
C221        C222   1.389       .  A
C221        H224   1.078       .  S
C222       Br228   1.922       .  S
C229        C230   1.419       .  A
C229        C234   1.405       .  A
C230        C231   1.388       .  A
C230       Br246   1.928       .  S
C231        C232   1.396       .  A
C231        H235   1.084       .  S
C232        C233   1.400       .  A
C232        C236   1.450       .  S
C233        C234   1.386       .  A
C233       Br245   1.921       .  S
C234        H237   1.079       .  S
C236        C238   1.398       .  A
C236        C242   1.397       .  A
C238        C239   1.393       .  A
C238        H243   1.084       .  S
C239        C240   1.418       .  A
C239       Br247   1.925       .  S
C240        C241   1.409       .  A
C241        C242   1.382       .  A
C241        H244   1.078       .  S
C242       Br248   1.922       .  S
C249        C250   1.429       .  A
C249        C254   1.412       .  A
C250        C251   1.415       .  A
C250       Br266   1.924       .  S
C251        C252   1.407       .  A
C251        H255   1.083       .  S
C252        C253   1.409       .  A
C252        C256   1.514       .  S
C253        C254   1.409       .  A
C253       Br265   1.920       .  S
C254        H257   1.066       .  S
C256        C258   1.406       .  A
C256        C262   1.410       .  A
C258        C259   1.411       .  A
C258        H263   1.083       .  S
C259        C260   1.426       .  A
C259       Br267   1.922       .  S
C260        C261   1.415       .  A
C261        C262   1.412       .  A
C261        H264   1.073       .  S
C262       Br268   1.919       .  S
C269        C271   1.584       .  S
C269        C273   1.560       .  S
C269        C272   1.555       .  S
C269        C517   1.569       .  S
C270        C274   1.533       .  S
C270        C276   1.522       .  S
C270        C275   1.507       .  S
C270        C497   1.515       .  S
C271        C279   1.400       .  A
C271        C274   1.410   1_554  A
C272        C283   1.387       .  A
C272        C275   1.389   1_554  A
C273        C287   1.388       .  A
C273        C276   1.394   1_554  A
C274        C277   1.380       .  A
C275        C281   1.368       .  A
C276        C284   1.373       .  A
C277        N278   1.340       .  A
C277        H290   1.081       .  S
N278        C279   1.361   1_556  A
N278        C402   1.432       .  S
C279        H280   1.077       .  S
C281        N282   1.343       .  A
C281        H291   1.083       .  S
N282        C283   1.366   1_556  A
N282        C366   1.425       .  S
C283        H289   1.083       .  S
C284        N285   1.344       .  A
C284        H286   1.082       .  S
N285        C287   1.364   1_556  A
N285        C377   1.428       .  S
C287        H288   1.082       .  S
C292        C294   1.557       .  S
C292        C296   1.561       .  S
C292        C295   1.567       .  S
C292        C528   1.565       .  S
C293        C297   1.521       .  S
C293        C299   1.530       .  S
C293        C298   1.512       .  S
C293        C508   1.517       .  S
C294        C302   1.383       .  A
C294        C297   1.398       .  A
C295        C306   1.392       .  A
C295        C298   1.398       .  A
C296        C310   1.389       .  A
C296        C299   1.396       .  A
C297        C300   1.373       .  A
C298        C304   1.369       .  A
C299        C307   1.375       .  A
C300        N301   1.347       .  A
C300        H313   1.083       .  S
N301        C302   1.363       .  A
N301        C450   1.426       .  S
C302        H303   1.082       .  S
C304        N305   1.340       .  A
C304        H314   1.082       .  S
N305        C306   1.362       .  A
N305        C414   1.423       .  S
C306        H312   1.078       .  S
C307        N308   1.341       .  A
C307        H309   1.081       .  S
N308        C310   1.364       .  A
N308        C425   1.427       .  S
C310        H311   1.082       .  S
C315        C317   1.524       .  S
C315        C319   1.511       .  S
C315        C318   1.526       .  S
C315        C477   1.514       .  S
C316        C320   1.578       .  S
C316        C322   1.558       .  S
C316        C321   1.562       .  S
C316        C457   1.572       .  S
C317        C325   1.377       .  A
C317        C320   1.399   1_554  A
C318        C329   1.376       .  A
C318        C321   1.401   1_554  A
C319        C333   1.367       .  A
C319        C322   1.392   1_554  A
C320        C323   1.397       .  A
C321        C327   1.386       .  A
C322        C330   1.390       .  A
C323        N324   1.363   1_556  A
C323        H336   1.079       .  S
N324        C325   1.342       .  A
N324        C370   1.432       .  S
C325        H326   1.082       .  S
C327        N328   1.363   1_556  A
C327        H337   1.082       .  S
N328        C329   1.343       .  A
N328        C378   1.427       .  S
C329        H335   1.080       .  S
C330        N331   1.366   1_556  A
C330        H332   1.081       .  S
N331        C333   1.341       .  A
N331        C404   1.424       .  S
C333        H334   1.083       .  S
C338        C340   1.507       .  S
C338        C342   1.533       .  S
C338        C341   1.522       .  S
C338        C488   1.514       .  S
C339        C343   1.551       .  S
C339        C345   1.577       .  S
C339        C344   1.559       .  S
C339        C468   1.567       .  S
C340        C348   1.368       .  A
C340        C343   1.389       .  A
C341        C352   1.372       .  A
C341        C344   1.395       .  A
C342        C356   1.380       .  A
C342        C345   1.410       .  A
C343        C346   1.385       .  A
C344        C350   1.388       .  A
C345        C353   1.394       .  A
C346        N347   1.365       .  A
C346        H359   1.082       .  S
N347        C348   1.343       .  A
N347        C418   1.423       .  S
C348        H349   1.083       .  S
C350        N351   1.364       .  A
C350        H360   1.082       .  S
N351        C352   1.343       .  A
N351        C426   1.427       .  S
C352        H358   1.083       .  S
C353        N354   1.360       .  A
C353        H355   1.079       .  S
N354        C356   1.342       .  A
N354        C452   1.430       .  S
C356        H357   1.080       .  S
O361       Mg363   2.158       .  S
C362        H401   1.081       .  S
C362        O375   1.232       .  S
C362        O399   1.267       .  A
Mg363       O928   2.172   1_554  S
Mg363       O407   2.277   1_554  S
Mg363       O939   2.252       .  S
Mg363       O910   2.296       .  S
O364       Mg942   2.181   1_554  S
O364       Mg389   2.165       .  S
O364        C921   1.232       .  S
O365        C396   1.267       .  A
O365       Mg389   2.299       .  S
C366        O368   1.273       .  A
C366        O380   1.268   1_556  A
O367        C395   1.267       .  A
O368       Mg400   2.274       .  S
Mg369       O375   2.175       .  S
Mg369       O371   2.264       .  S
C370        O408   1.272       .  A
C370        O376   1.271       .  A
O371        C378   1.269   1_556  A
H372        C921   1.080       .  S
C373        O388   1.264       .  A
O374        C397   1.268       .  A
O374       Mg899   2.296   1_455  S
O375       Mg389   2.190   1_556  S
O376       Mg406   2.276   1_554  S
C377        O390   1.269       .  A
C377        O382   1.275   1_556  A
C378        O405   1.275       .  A
Mg379       O386   2.164       .  S
Mg379       O380   2.259       .  S
O381        C385   1.267   1_455  A
O382       Mg389   2.304       .  S
O383        C402   1.273       .  A
O384        C404   1.271       .  A
O384       Mg400   2.278   1_554  S
C385        H908   1.080       .  S
C385        O900   1.232       .  S
O386       Mg400   2.195   1_554  S
O386        C397   1.233       .  S
O387       Mg406   2.148       .  S
O388       Mg400   2.289       .  S
Mg389       O405   2.288       .  S
O390       Mg942   2.255       .  S
O392       Mg899   2.172   1_456  S
O392       Mg400   2.158       .  S
O392        C931   1.232       .  S
H393        C931   1.080       .  S
H394        C397   1.081       .  S
C395        H929   1.080       .  S
C395        O928   1.232       .  S
O399       Mg942   2.300       .  S
C402        O407   1.269       .  A
O403        C404   1.268       .  A
O403       Mg899   2.252   1_455  S
Mg406       O900   2.181   1_456  S
Mg406       O926   2.255   1_455  S
Mg406       O935   2.300   1_455  S
O409       Mg411   2.169       .  S
O409       Mg953   2.180       .  S
O409        C980   1.231       .  S
C410        H449   1.082       .  S
C410        O423   1.230       .  S
C410        O447   1.265       .  A
Mg411       O455   2.267       .  S
O412       Mg437   2.147       .  S
O413        C444   1.266       .  A
O413       Mg437   2.293       .  S
C414        O416   1.269       .  A
C414        O428   1.270       .  A
O415        C443   1.266       .  A
O415       Mg953   2.295       .  S
O416       Mg448   2.252       .  S
Mg417       O945   2.180   1_455  S
Mg417       O423   2.165       .  S
Mg417       O951   2.295   1_455  S
Mg417       O967   2.285   1_455  S
Mg417       O419   2.288       .  S
C418        O456   1.270       .  A
C418        O424   1.267       .  A
O419        C426   1.274       .  A
C421        H982   1.081       .  S
C421        O971   1.232       .  S
C421        O436   1.267       .  A
O422        C445   1.266       .  A
O423       Mg437   2.190       .  S
O424       Mg454   2.256   1_565  S
C425        O438   1.271       .  A
C425        O430   1.269       .  A
C426        O453   1.270       .  A
Mg427       O434   2.152       .  S
Mg427       O971   2.184       .  S
Mg427       O428   2.268       .  S
Mg427       O965   2.293       .  S
Mg427       O992   2.262       .  S
O429        C433   1.266   1_565  A
O429       Mg963   2.293   1_455  S
O430       Mg437   2.270       .  S
O431        C450   1.275       .  A
O431       Mg953   2.285       .  S
O432        C452   1.269       .  A
O432       Mg448   2.274       .  S
O434       Mg448   2.176       .  S
O434        C445   1.232       .  S
O435       Mg963   2.184   1_455  S
O435       Mg454   2.158   1_565  S
O435        C957   1.232       .  S
O436       Mg448   2.297       .  S
Mg437       O453   2.256       .  S
H439        C980   1.081       .  S
O440       Mg448   2.144       .  S
H442        C445   1.082       .  S
C444        H975   1.081   1_455  S
C444        O945   1.231   1_455  S
H446        C957   1.081       .  S
C450        O455   1.270       .  A
O451        C452   1.273       .  A
O456       Mg963   2.262   1_455  S
C457        C458   1.428       .  A
C457        C462   1.415       .  A
C458        C459   1.418       .  A
C458       Br474   1.922       .  S
C459        C460   1.407       .  A
C459        H463   1.083       .  S
C460        C461   1.405       .  A
C460        C464   1.510       .  S
C461        C462   1.408       .  A
C461       Br473   1.919       .  S
C462        H465   1.068       .  S
C464        C466   1.406       .  A
C464        C470   1.408       .  A
C466        C467   1.416       .  A
C466        H471   1.083       .  S
C467        C468   1.427       .  A
C467       Br475   1.923       .  S
C468        C469   1.413       .  A
C469        C470   1.409       .  A
C469        H472   1.072       .  S
C470       Br476   1.918       .  S
C477        C478   1.419       .  A
C477        C482   1.404       .  A
C478        C479   1.385       .  A
C478       Br494   1.929       .  S
C479        C480   1.397       .  A
C479        H483   1.083       .  S
C480        C481   1.404       .  A
C480        C484   1.458       .  S
C481        C482   1.389       .  A
C481       Br493   1.922       .  S
C482        H485   1.076       .  S
C484        C486   1.397       .  A
C484        C490   1.405       .  A
C486        C487   1.386       .  A
C486        H491   1.084       .  S
C487        C488   1.419       .  A
C487       Br495   1.929       .  S
C488        C489   1.404       .  A
C489        C490   1.389       .  A
C489        H492   1.078       .  S
C490       Br496   1.922       .  S
C497        C498   1.419       .  A
C497        C502   1.405       .  A
C498        C499   1.388       .  A
C498       Br514   1.928       .  S
C499        C500   1.396       .  A
C499        H503   1.084       .  S
C500        C501   1.400       .  A
C500        C504   1.450       .  S
C501        C502   1.386       .  A
C501       Br513   1.921       .  S
C502        H505   1.079       .  S
C504        C506   1.398       .  A
C504        C510   1.397       .  A
C506        C507   1.393       .  A
C506        H511   1.084       .  S
C507        C508   1.418       .  A
C507       Br515   1.925       .  S
C508        C509   1.409       .  A
C509        C510   1.382       .  A
C509        H512   1.078       .  S
C510       Br516   1.922       .  S
C517        C518   1.429       .  A
C517        C522   1.412       .  A
C518        C519   1.415       .  A
C518       Br534   1.924       .  S
C519        C520   1.407       .  A
C519        H523   1.083       .  S
C520        C521   1.409       .  A
C520        C524   1.514       .  S
C521        C522   1.409       .  A
C521       Br533   1.920       .  S
C522        H525   1.066       .  S
C524        C526   1.406       .  A
C524        C530   1.410       .  A
C526        C527   1.411       .  A
C526        H531   1.083       .  S
C527        C528   1.426       .  A
C527       Br535   1.922       .  S
C528        C529   1.415       .  A
C529        C530   1.412       .  A
C529        H532   1.073       .  S
C530       Br536   1.919       .  S
C537        C539   1.584       .  S
C537        C541   1.560       .  S
C537        C540   1.555       .  S
C537        C785   1.569       .  S
C538        C542   1.533       .  S
C538        C544   1.522       .  S
C538        C543   1.507       .  S
C538        C765   1.515       .  S
C539        C547   1.400       .  A
C539        C542   1.410   1_554  A
C540        C551   1.387       .  A
C540        C543   1.389   1_554  A
C541        C555   1.388       .  A
C541        C544   1.394   1_554  A
C542        C545   1.380       .  A
C543        C549   1.368       .  A
C544        C552   1.373       .  A
C545        N546   1.340       .  A
C545        H558   1.081       .  S
N546        C547   1.361   1_556  A
N546        C670   1.432       .  S
C547        H548   1.077       .  S
C549        N550   1.343       .  A
C549        H559   1.083       .  S
N550        C551   1.366   1_556  A
N550        C634   1.425       .  S
C551        H557   1.083       .  S
C552        N553   1.344       .  A
C552        H554   1.082       .  S
N553        C555   1.364   1_556  A
N553        C645   1.428       .  S
C555        H556   1.082       .  S
C560        C562   1.557       .  S
C560        C564   1.561       .  S
C560        C563   1.567       .  S
C560        C796   1.565       .  S
C561        C565   1.521       .  S
C561        C567   1.530       .  S
C561        C566   1.512       .  S
C561        C776   1.517       .  S
C562        C570   1.383       .  A
C562        C565   1.398       .  A
C563        C574   1.392       .  A
C563        C566   1.398       .  A
C564        C578   1.389       .  A
C564        C567   1.396       .  A
C565        C568   1.373       .  A
C566        C572   1.369       .  A
C567        C575   1.375       .  A
C568        N569   1.347       .  A
C568        H581   1.083       .  S
N569        C570   1.363       .  A
N569        C718   1.426       .  S
C570        H571   1.082       .  S
C572        N573   1.340       .  A
C572        H582   1.082       .  S
N573        C574   1.362       .  A
N573        C682   1.423       .  S
C574        H580   1.078       .  S
C575        N576   1.341       .  A
C575        H577   1.081       .  S
N576        C578   1.364       .  A
N576        C693   1.427       .  S
C578        H579   1.082       .  S
C583        C585   1.524       .  S
C583        C587   1.511       .  S
C583        C586   1.526       .  S
C583        C745   1.514       .  S
C584        C588   1.578       .  S
C584        C590   1.558       .  S
C584        C589   1.562       .  S
C584        C725   1.572       .  S
C585        C593   1.377       .  A
C585        C588   1.399   1_554  A
C586        C597   1.376       .  A
C586        C589   1.401   1_554  A
C587        C601   1.367       .  A
C587        C590   1.392   1_554  A
C588        C591   1.397       .  A
C589        C595   1.386       .  A
C590        C598   1.390       .  A
C591        N592   1.363   1_556  A
C591        H604   1.079       .  S
N592        C593   1.342       .  A
N592        C638   1.432       .  S
C593        H594   1.082       .  S
C595        N596   1.363   1_556  A
C595        H605   1.082       .  S
N596        C597   1.343       .  A
N596        C646   1.427       .  S
C597        H603   1.080       .  S
C598        N599   1.366   1_556  A
C598        H600   1.081       .  S
N599        C601   1.341       .  A
N599        C672   1.424       .  S
C601        H602   1.084       .  S
C606        C608   1.507       .  S
C606        C610   1.533       .  S
C606        C609   1.522       .  S
C606        C756   1.514       .  S
C607        C611   1.551       .  S
C607        C613   1.577       .  S
C607        C612   1.559       .  S
C607        C736   1.567       .  S
C608        C616   1.368       .  A
C608        C611   1.389       .  A
C609        C620   1.372       .  A
C609        C612   1.395       .  A
C610        C624   1.380       .  A
C610        C613   1.410       .  A
C611        C614   1.385       .  A
C612        C618   1.388       .  A
C613        C621   1.394       .  A
C614        N615   1.365       .  A
C614        H627   1.082       .  S
N615        C616   1.343       .  A
N615        C686   1.423       .  S
C616        H617   1.083       .  S
C618        N619   1.364       .  A
C618        H628   1.082       .  S
N619        C620   1.343       .  A
N619        C694   1.427       .  S
C620        H626   1.083       .  S
C621        N622   1.360       .  A
C621        H623   1.079       .  S
N622        C624   1.342       .  A
N622        C720   1.430       .  S
C624        H625   1.080       .  S
O629       Mg631   2.158       .  S
O629       Mg905   2.162   1_544  S
O629        C932   1.231   1_545  S
C630        H669   1.081       .  S
C630        O643   1.232       .  S
C630        O667   1.267       .  A
Mg631       O675   2.277   1_554  S
O632       Mg657   2.165       .  S
O633        C664   1.267       .  A
O633       Mg657   2.299       .  S
C634        O636   1.273       .  A
C634        O648   1.268   1_556  A
O635        C663   1.267   1_655  A
O635       Mg905   2.300   1_545  S
O636       Mg668   2.274       .  S
Mg637       O897   2.162   1_556  S
Mg637       O643   2.175       .  S
Mg637       O903   2.300       .  S
Mg637       O919   2.288       .  S
Mg637       O639   2.264       .  S
C638        O676   1.272       .  A
C638        O644   1.271       .  A
O639        C646   1.269   1_556  A
C641        H934   1.082       .  S
C641        O923   1.230       .  S
C641        O656   1.264   1_565  A
O642        C665   1.268       .  A
O643       Mg657   2.190   1_556  S
O644       Mg674   2.276   1_554  S
C645        O658   1.269       .  A
C645        O650   1.275   1_556  A
C646        O673   1.275       .  A
Mg647       O654   2.164       .  S
Mg647       O923   2.178   1_544  S
Mg647       O648   2.259       .  S
Mg647       O917   2.296   1_545  S
Mg647       O944   2.282   1_545  S
O649        C653   1.267       .  A
O649       Mg915   2.296       .  S
O650       Mg657   2.304       .  S
O651        C670   1.273       .  A
O651       Mg905   2.288   1_545  S
O652        C672   1.271       .  A
O652       Mg668   2.278   1_554  S
O654       Mg668   2.195   1_554  S
O654        C665   1.233       .  S
O655       Mg915   2.178   1_556  S
O655       Mg674   2.148       .  S
O655        C909   1.230       .  S
O656       Mg668   2.289       .  S
Mg657       O673   2.288       .  S
H659        C932   1.082   1_545  S
O660       Mg668   2.158       .  S
H662        C665   1.081       .  S
C664        H927   1.082       .  S
C664        O897   1.231       .  S
H666        C909   1.082       .  S
C670        O675   1.269       .  A
O671        C672   1.268       .  A
O676       Mg915   2.282       .  S
O677       Mg679   2.169       .  S
C678        H717   1.082       .  S
C678        O691   1.230       .  S
C678        O715   1.265       .  A
Mg679       O976   2.170   1_545  S
Mg679       O723   2.267       .  S
Mg679       O987   2.282   1_545  S
Mg679       O958   2.292   1_545  S
O680       Mg990   2.188       .  S
O680       Mg705   2.147       .  S
O680        C969   1.232       .  S
O681        C712   1.266       .  A
O681       Mg705   2.293       .  S
C682        O684   1.269       .  A
C682        O696   1.270       .  A
O683        C711   1.266       .  A
O684       Mg716   2.252       .  S
Mg685       O691   2.165       .  S
Mg685       O687   2.288       .  S
C686        O724   1.270       .  A
C686        O692   1.267       .  A
O687        C694   1.274       .  A
H688        C969   1.080       .  S
C689        O704   1.267   1_455  A
O690        C713   1.266       .  A
O690       Mg947   2.292       .  S
O691       Mg705   2.190       .  S
O692       Mg722   2.256       .  S
C693        O706   1.271       .  A
C693        O698   1.269       .  A
C694        O721   1.270       .  A
Mg695       O702   2.152       .  S
Mg695       O696   2.268       .  S
O697        C701   1.266       .  A
O698       Mg705   2.270       .  S
O699        C718   1.275       .  A
O700        C720   1.269       .  A
O700       Mg716   2.274       .  S
C701        H956   1.080       .  S
C701        O948   1.232       .  S
O702       Mg716   2.176       .  S
O702        C713   1.232       .  S
O703       Mg722   2.158       .  S
O704       Mg716   2.297       .  S
Mg705       O721   2.256       .  S
O706       Mg990   2.269       .  S
O708       Mg947   2.170       .  S
O708       Mg716   2.144       .  S
O708        C979   1.231       .  S
H709        C979   1.080       .  S
H710        C713   1.082       .  S
C711        H977   1.080   1_545  S
C711        O976   1.231   1_545  S
O715       Mg990   2.293       .  S
C718        O723   1.270       .  A
O719        C720   1.273       .  A
O719       Mg947   2.282       .  S
Mg722       O948   2.188       .  S
Mg722       O974   2.269       .  S
Mg722       O983   2.293       .  S
C725        C726   1.428       .  A
C725        C730   1.415       .  A
C726        C727   1.418       .  A
C726       Br742   1.922       .  S
C727        C728   1.407       .  A
C727        H731   1.083       .  S
C728        C729   1.405       .  A
C728        C732   1.510       .  S
C729        C730   1.408       .  A
C729       Br741   1.919       .  S
C730        H733   1.068       .  S
C732        C734   1.406       .  A
C732        C738   1.408       .  A
C734        C735   1.416       .  A
C734        H739   1.083       .  S
C735        C736   1.427       .  A
C735       Br743   1.923       .  S
C736        C737   1.413       .  A
C737        C738   1.409       .  A
C737        H740   1.072       .  S
C738       Br744   1.918       .  S
C745        C746   1.419       .  A
C745        C750   1.404       .  A
C746        C747   1.385       .  A
C746       Br762   1.929       .  S
C747        C748   1.397       .  A
C747        H751   1.083       .  S
C748        C749   1.404       .  A
C748        C752   1.458       .  S
C749        C750   1.389       .  A
C749       Br761   1.922       .  S
C750        H753   1.077       .  S
C752        C754   1.397       .  A
C752        C758   1.405       .  A
C754        C755   1.386       .  A
C754        H759   1.084       .  S
C755        C756   1.419       .  A
C755       Br763   1.929       .  S
C756        C757   1.404       .  A
C757        C758   1.389       .  A
C757        H760   1.078       .  S
C758       Br764   1.922       .  S
C765        C766   1.419       .  A
C765        C770   1.405       .  A
C766        C767   1.388       .  A
C766       Br782   1.928       .  S
C767        C768   1.396       .  A
C767        H771   1.084       .  S
C768        C769   1.400       .  A
C768        C772   1.450       .  S
C769        C770   1.386       .  A
C769       Br781   1.921       .  S
C770        H773   1.079       .  S
C772        C774   1.398       .  A
C772        C778   1.397       .  A
C774        C775   1.393       .  A
C774        H779   1.084       .  S
C775        C776   1.418       .  A
C775       Br783   1.925       .  S
C776        C777   1.409       .  A
C777        C778   1.382       .  A
C777        H780   1.078       .  S
C778       Br784   1.922       .  S
C785        C786   1.429       .  A
C785        C790   1.412       .  A
C786        C787   1.415       .  A
C786       Br802   1.924       .  S
C787        C788   1.407       .  A
C787        H791   1.083       .  S
C788        C789   1.409       .  A
C788        C792   1.514       .  S
C789        C790   1.409       .  A
C789       Br801   1.920       .  S
C790        H793   1.066       .  S
C792        C794   1.406       .  A
C792        C798   1.410       .  A
C794        C795   1.411       .  A
C794        H799   1.083       .  S
C795        C796   1.426       .  A
C795       Br803   1.922       .  S
C796        C797   1.415       .  A
C797        C798   1.412       .  A
C797        H800   1.073       .  S
C798       Br804   1.919       .  S
C805        C807   1.584       .  S
C805        C809   1.560       .  S
C805        C808   1.555       .  S
C805       C1053   1.569       .  S
C806        C810   1.533       .  S
C806        C812   1.522       .  S
C806        C811   1.507       .  S
C806       C1033   1.515       .  S
C807        C815   1.400       .  A
C807        C810   1.410   1_554  A
C808        C819   1.387       .  A
C808        C811   1.389   1_554  A
C809        C823   1.388       .  A
C809        C812   1.394   1_554  A
C810        C813   1.380       .  A
C811        C817   1.368       .  A
C812        C820   1.373       .  A
C813        N814   1.340       .  A
C813        H826   1.081       .  S
N814        C815   1.361   1_556  A
N814        C938   1.432       .  S
C815        H816   1.077       .  S
C817        N818   1.343       .  A
C817        H827   1.083       .  S
N818        C819   1.366   1_556  A
N818        C902   1.425       .  S
C819        H825   1.083       .  S
C820        N821   1.344       .  A
C820        H822   1.082       .  S
N821        C823   1.364   1_556  A
N821        C913   1.428       .  S
C823        H824   1.082       .  S
C828        C830   1.557       .  S
C828        C832   1.561       .  S
C828        C831   1.567       .  S
C828       C1064   1.565       .  S
C829        C833   1.521       .  S
C829        C835   1.530       .  S
C829        C834   1.512       .  S
C829       C1044   1.517       .  S
C830        C838   1.383       .  A
C830        C833   1.398       .  A
C831        C842   1.392       .  A
C831        C834   1.398       .  A
C832        C846   1.389       .  A
C832        C835   1.396       .  A
C833        C836   1.373       .  A
C834        C840   1.369       .  A
C835        C843   1.375       .  A
C836        N837   1.347       .  A
C836        H849   1.083       .  S
N837        C838   1.363       .  A
N837        C986   1.426       .  S
C838        H839   1.082       .  S
C840        N841   1.340       .  A
C840        H850   1.082       .  S
N841        C842   1.362       .  A
N841        C950   1.423       .  S
C842        H848   1.078       .  S
C843        N844   1.341       .  A
C843        H845   1.081       .  S
N844        C846   1.364       .  A
N844        C961   1.427       .  S
C846        H847   1.082       .  S
C851        C853   1.524       .  S
C851        C855   1.511       .  S
C851        C854   1.526       .  S
C851       C1013   1.514       .  S
C852        C856   1.578       .  S
C852        C858   1.558       .  S
C852        C857   1.562       .  S
C852        C993   1.572       .  S
C853        C861   1.377       .  A
C853        C856   1.399   1_554  A
C854        C865   1.376       .  A
C854        C857   1.401   1_554  A
C855        C869   1.367       .  A
C855        C858   1.392   1_554  A
C856        C859   1.397       .  A
C857        C863   1.386       .  A
C858        C866   1.390       .  A
C859        N860   1.363   1_556  A
C859        H872   1.079       .  S
N860        C861   1.342       .  A
N860        C906   1.432       .  S
C861        H862   1.082       .  S
C863        N864   1.363   1_556  A
C863        H873   1.082       .  S
N864        C865   1.343       .  A
N864        C914   1.427       .  S
C865        H871   1.080       .  S
C866        N867   1.366   1_556  A
C866        H868   1.081       .  S
N867        C869   1.341       .  A
N867        C940   1.424       .  S
C869        H870   1.083       .  S
C874        C876   1.507       .  S
C874        C878   1.533       .  S
C874        C877   1.522       .  S
C874       C1024   1.514       .  S
C875        C879   1.551       .  S
C875        C881   1.577       .  S
C875        C880   1.559       .  S
C875       C1004   1.567       .  S
C876        C884   1.368       .  A
C876        C879   1.389       .  A
C877        C888   1.372       .  A
C877        C880   1.395       .  A
C878        C892   1.380       .  A
C878        C881   1.410       .  A
C879        C882   1.385       .  A
C880        C886   1.388       .  A
C881        C889   1.394       .  A
C882        N883   1.365       .  A
C882        H895   1.082       .  S
N883        C884   1.343       .  A
N883        C954   1.423       .  S
C884        H885   1.083       .  S
C886        N887   1.364       .  A
C886        H896   1.082       .  S
N887        C888   1.343       .  A
N887        C962   1.427       .  S
C888        H894   1.083       .  S
C889        N890   1.360       .  A
C889        H891   1.079       .  S
N890        C892   1.342       .  A
N890        C988   1.430       .  S
C892        H893   1.080       .  S
O897       Mg899   2.158       .  S
C898        H937   1.081       .  S
C898        O911   1.232       .  S
C898        O935   1.267       .  A
Mg899       O943   2.277   1_554  S
O900       Mg925   2.165       .  S
O901        C932   1.267       .  A
O901       Mg925   2.299       .  S
C902        O904   1.273       .  A
C902        O916   1.268   1_556  A
O903        C931   1.267   1_655  A
O904       Mg936   2.274       .  S
Mg905       O911   2.175       .  S
Mg905       O907   2.264       .  S
C906        O944   1.272       .  A
C906        O912   1.271       .  A
O907        C914   1.269   1_556  A
C909        O924   1.264       .  A
O910        C933   1.268       .  A
O911       Mg925   2.190   1_556  S
O912       Mg942   2.276   1_554  S
C913        O926   1.269       .  A
C913        O918   1.275   1_556  A
C914        O941   1.275       .  A
Mg915       O922   2.164       .  S
Mg915       O916   2.259       .  S
O917        C921   1.267       .  A
O918       Mg925   2.304       .  S
O919        C938   1.273       .  A
O920        C940   1.271       .  A
O920       Mg936   2.278   1_554  S
O922       Mg936   2.195   1_554  S
O922        C933   1.233       .  S
O923       Mg942   2.148       .  S
O924       Mg936   2.289       .  S
Mg925       O941   2.288       .  S
O928       Mg936   2.158       .  S
H930        C933   1.081       .  S
C938        O943   1.269       .  A
O939        C940   1.268       .  A
O945       Mg947   2.169       .  S
C946        H985   1.082       .  S
C946        O959   1.230       .  S
C946        O983   1.265       .  A
Mg947       O991   2.267       .  S
O948       Mg973   2.147       .  S
O949        C980   1.266       .  A
O949       Mg973   2.293       .  S
C950        O952   1.269       .  A
C950        O964   1.270       .  A
O951        C979   1.266       .  A
O952       Mg984   2.252       .  S
Mg953       O959   2.165       .  S
Mg953       O955   2.288       .  S
C954        O992   1.270       .  A
C954        O960   1.267       .  A
O955        C962   1.274       .  A
C957        O972   1.267   1_455  A
O958        C981   1.266       .  A
O959       Mg973   2.190       .  S
O960       Mg990   2.256   1_565  S
C961        O974   1.271       .  A
C961        O966   1.269       .  A
C962        O989   1.270       .  A
Mg963       O970   2.152       .  S
Mg963       O964   2.268       .  S
O965        C969   1.266   1_565  A
O966       Mg973   2.270       .  S
O967        C986   1.275       .  A
O968        C988   1.269       .  A
O968       Mg984   2.274       .  S
O970       Mg984   2.176       .  S
O970        C981   1.232       .  S
O971       Mg990   2.158   1_565  S
O972       Mg984   2.297       .  S
Mg973       O989   2.256       .  S
O976       Mg984   2.144       .  S
H978        C981   1.082       .  S
C986        O991   1.270       .  A
O987        C988   1.273       .  A
C993        C994   1.428       .  A
C993        C998   1.415       .  A
C994        C995   1.418       .  A
C994      Br1010   1.922       .  S
C995        C996   1.407       .  A
C995        H999   1.083       .  S
C996        C997   1.405       .  A
C996       C1000   1.510       .  S
C997        C998   1.408       .  A
C997      Br1009   1.919       .  S
C998       H1001   1.068       .  S
C1000      C1002   1.406       .  A
C1000      C1006   1.408       .  A
C1002      C1003   1.416       .  A
C1002      H1007   1.083       .  S
C1003      C1004   1.427       .  A
C1003     Br1011   1.923       .  S
C1004      C1005   1.413       .  A
C1005      C1006   1.409       .  A
C1005      H1008   1.072       .  S
C1006     Br1012   1.918       .  S
C1013      C1014   1.419       .  A
C1013      C1018   1.404       .  A
C1014      C1015   1.385       .  A
C1014     Br1030   1.929       .  S
C1015      C1016   1.397       .  A
C1015      H1019   1.083       .  S
C1016      C1017   1.404       .  A
C1016      C1020   1.458       .  S
C1017      C1018   1.389       .  A
C1017     Br1029   1.922       .  S
C1018      H1021   1.077       .  S
C1020      C1022   1.397       .  A
C1020      C1026   1.405       .  A
C1022      C1023   1.386       .  A
C1022      H1027   1.084       .  S
C1023      C1024   1.419       .  A
C1023     Br1031   1.929       .  S
C1024      C1025   1.404       .  A
C1025      C1026   1.389       .  A
C1025      H1028   1.078       .  S
C1026     Br1032   1.922       .  S
C1033      C1034   1.419       .  A
C1033      C1038   1.405       .  A
C1034      C1035   1.388       .  A
C1034     Br1050   1.928       .  S
C1035      C1036   1.396       .  A
C1035      H1039   1.084       .  S
C1036      C1037   1.400       .  A
C1036      C1040   1.450       .  S
C1037      C1038   1.386       .  A
C1037     Br1049   1.921       .  S
C1038      H1041   1.079       .  S
C1040      C1042   1.398       .  A
C1040      C1046   1.397       .  A
C1042      C1043   1.393       .  A
C1042      H1047   1.084       .  S
C1043      C1044   1.418       .  A
C1043     Br1051   1.925       .  S
C1044      C1045   1.409       .  A
C1045      C1046   1.382       .  A
C1045      H1048   1.078       .  S
C1046     Br1052   1.922       .  S
C1053      C1054   1.429       .  A
C1053      C1058   1.412       .  A
C1054      C1055   1.415       .  A
C1054     Br1070   1.924       .  S
C1055      C1056   1.407       .  A
C1055      H1059   1.083       .  S
C1056      C1057   1.409       .  A
C1056      C1060   1.514       .  S
C1057      C1058   1.409       .  A
C1057     Br1069   1.920       .  S
C1058      H1061   1.066       .  S
C1060      C1062   1.406       .  A
C1060      C1066   1.410       .  A
C1062      C1063   1.411       .  A
C1062      H1067   1.083       .  S
C1063      C1064   1.426       .  A
C1063     Br1071   1.922       .  S
C1064      C1065   1.415       .  A
C1065      C1066   1.412       .  A
C1065      H1068   1.073       .  S
C1066     Br1072   1.919       .  S
