geometry optimzed in LAMMPS
_audit_creation_date              2020-12-01 
_audit_creation_method            'lammps2cif' 
_symmetry_space_group_name_H-M    'P1' 
_symmetry_Int_Tables_number       1 
_symmetry_cell_setting            triclinic 
loop_ 
_symmetry_equiv_pos_as_xyz 
  x,y,z 
_cell_length_a                    35.35939595 
_cell_length_b                    23.510530982710655 
_cell_length_c                    46.3621256435588 
_cell_angle_alpha                 90.74438092332164 
_cell_angle_beta                  123.72835493113084 
_cell_angle_gamma                 89.4034904380201 
loop_ 
_atom_site_label 
_atom_site_type_symbol 
_atom_site_fract_x 
_atom_site_fract_y 
_atom_site_fract_z 
_atom_site_charge 
O1          O  0.21118801  0.36913501  0.08944271    -0.57400
C2          C  0.22587385  0.28686516  0.01278257     0.75200
O3          O  0.30232635  0.22306476  0.10685986    -0.58600
C4          C  0.22563256  0.35262439  0.11990711     0.75200
C5          C  0.15565422  0.20766668  0.05628634     0.77600
Cd6        Cd  0.23165602  0.27918250  0.07512064     1.37500
O7          O  0.22364470  0.33254667  0.02674481    -0.57400
O8          O  0.15058215  0.25425103  0.04106618    -0.56200
C9          C  0.32725552  0.26548051  0.11163710     0.77500
O10         O  0.19600042  0.19481530  0.08076128    -0.58600
O11         O  0.22725717  0.24010910  0.02655067    -0.57100
O12         O  0.24376320  0.30391645  0.12913072    -0.57000
O13         O  0.30786863  0.31312352  0.10040583    -0.56200
O14         O  0.24621424  0.35954310  0.40418189    -0.57400
C15         C  0.22782236  0.28585843  0.48238964     0.75200
O16         O  0.16386800  0.21620229  0.38694081    -0.58600
C17         C  0.24973694  0.33385589  0.38147302     0.75200
C18         C  0.30986203  0.20166388  0.45560055     0.77600
Cd19       Cd  0.23220512  0.27269953  0.42446086     1.37500
O20         O  0.23696130  0.32943999  0.47133057    -0.57400
O21         O  0.31243836  0.25212859  0.46654921    -0.56200
C22         C  0.13731994  0.25799003  0.38061335     0.77500
O23         O  0.27106587  0.18424584  0.43084662    -0.58600
O24         O  0.22196462  0.23892901  0.46684576    -0.57100
O25         O  0.24716343  0.28029326  0.38063010    -0.57000
O26         O  0.15492898  0.30650065  0.39175852    -0.56200
C27         C  0.25771529  0.45723823  0.27155789    -0.02100
C28         C  0.26493371  0.53185906  0.27569996    -0.02100
O29         O  0.23146962  0.67585197  0.03114586    -0.57400
C30         C  0.22588584  0.67317357  0.12416762     0.75200
O31         O  0.30801343  0.78865395  0.11119407    -0.58600
C32         C  0.23831562  0.71905499  0.01833746     0.75200
C33         C  0.15921242  0.81346692  0.04679022     0.77600
Cd34       Cd  0.23575856  0.73672617  0.07650707     1.37500
O35         O  0.20906679  0.65568652  0.09330732    -0.57400
O36         O  0.15530315  0.76347841  0.03492851    -0.56200
C37         C  0.33213817  0.74574208  0.11397669     0.77500
O38         O  0.19881766  0.82810805  0.07178168    -0.58600
O39         O  0.24581952  0.72062846  0.13172018    -0.57100
O40         O  0.24132074  0.76736700  0.03173430    -0.57000
O41         O  0.31176494  0.69914730  0.10104249    -0.56200
O42         O  0.24857651  0.67029253  0.47742185    -0.57400
C43         C  0.25322925  0.64852216  0.38667753     0.75200
O44         O  0.17097789  0.77442911  0.39306871    -0.58600
C45         C  0.24179962  0.71622437  0.48874313     0.75200
C46         C  0.31272592  0.80298144  0.44971379     0.77600
Cd47       Cd  0.24147090  0.72231033  0.42888108     1.37500
O48         O  0.26794615  0.63379199  0.41749049    -0.57400
O49         O  0.31941731  0.75792992  0.46667363    -0.56200
C50         C  0.14607939  0.73340698  0.39045185     0.77500
O51         O  0.27278201  0.81068391  0.42318303    -0.58600
O52         O  0.23342211  0.69606003  0.37625353    -0.57100
O53         O  0.23815293  0.76207278  0.47343314    -0.57000
O54         O  0.16537400  0.68684883  0.40440504    -0.56200
C55         C  0.21078866  0.46911765  0.22956113    -0.02100
C56         C  0.21805530  0.54305005  0.23343453    -0.02100
O57         O  0.48439864  0.19224741  0.21803350    -0.57400
C58         C  0.49246137  0.18302928  0.12746123     0.75200
O59         O  0.40084737  0.30358880  0.13412739    -0.58600
C60         C  0.47451082  0.23311050  0.23100201     0.75200
C61         C  0.04437059  0.33697124  0.19738943     0.77600
Cd62       Cd  0.47291345  0.25302895  0.16995671     1.37500
O63         O  0.50349188  0.16695585  0.15724833    -0.57400
O64         O  0.04767814  0.29121910  0.21272115    -0.56200
C65         C  0.37653593  0.26083221  0.12981806     0.77500
O66         O  0.50572452  0.34768636  0.17008833    -0.58600
O67         O  0.47354630  0.23130422  0.11783759    -0.57100
O68         O  0.46415612  0.28033178  0.21557697    -0.57000
O69         O  0.39674974  0.21402841  0.14240576    -0.56200
O70         O  0.48083856  0.18272931  0.27855509    -0.57400
C71         C  0.48883802  0.15722774  0.37687680     0.75200
O72         O  0.06320566  0.29058809  0.36154725    -0.58600
C73         C  0.47741530  0.22926177  0.26359715     0.75200
C74         C  0.42440999  0.31540909  0.31673032     0.77600
Cd75       Cd  0.99390868  0.23431663  0.33100392     1.37500
O76         O  0.47571035  0.14178991  0.34630354    -0.57400
O77         O  0.41594932  0.26650786  0.30267092    -0.56200
C78         C  0.08849169  0.25055152  0.36296034     0.77500
O79         O  0.46582535  0.32744926  0.33896637    -0.58600
O80         O  0.00491045  0.20691728  0.38572722    -0.57100
O81         O  0.97810183  0.27464291  0.27867531    -0.57000
O82         O  0.07001351  0.20313790  0.34987603    -0.56200
C83         C  0.45972666  0.04222990  0.48119528    -0.02100
C84         C  0.46200015  0.96793775  0.48011626    -0.02100
O85         O  0.51332569  0.83860442  0.15894203    -0.57400
C86         C  0.49016782  0.76590592  0.23608416     0.75200
O87         O  0.40543515  0.70603618  0.13493379    -0.58600
C88         C  0.49729608  0.82733290  0.12730131     0.75200
C89         C  0.04647995  0.67409915  0.18303639     0.77600
Cd90       Cd  0.47835140  0.75633164  0.16884423     1.37500
O91         O  0.49055171  0.81063685  0.22110900    -0.57400
O92         O  0.00504406  0.66153252  0.16110763    -0.56200
C93         C  0.38152269  0.74950259  0.13138012     0.77500
O94         O  0.55481776  0.72239568  0.19752293    -0.58600
O95         O  0.48636034  0.71922815  0.22083215    -0.57100
O96         O  0.47107652  0.78485318  0.11501970    -0.57000
O97         O  0.40218255  0.79616136  0.14353758    -0.56200
O98         O  0.48443014  0.84605642  0.35451066    -0.57400
C99         C  0.49383594  0.76595891  0.26947679     0.75200
O100        O  0.07171215  0.69939458  0.36939977    -0.58600
C101        C  0.99394664  0.82820782  0.38363768     0.75200
C102        C  0.42731257  0.67844541  0.31155943     0.77600
Cd103      Cd  0.00214247  0.75583488  0.33522342     1.37500
O104        O  0.49035719  0.81039062  0.28387414    -0.57400
O105        O  0.42265405  0.72744622  0.29887765    -0.56200
C106        C  0.09710718  0.73999178  0.37225981     0.77500
O107        O  0.46756482  0.66406217  0.33540901    -0.58600
O108        O  0.00000507  0.71949850  0.28499395    -0.57100
O109        O  0.00848323  0.77760020  0.39103332    -0.57000
O110        O  0.07840916  0.78702319  0.35884369    -0.56200
C111        C  0.00727143  0.04307687  0.02373438    -0.02100
C112        C  0.00921997  0.96896956  0.02388697    -0.02100
C113        C  0.47486484  0.88949514  0.04576721    -0.01500
C114        C  0.00050942  0.94134321  0.05290558     0.08200
C115        C  0.03077187  0.94888080  0.09080200    -0.01600
C116        C  0.02592225  0.91706935  0.11472354    -0.01600
C117        C  0.50637951  0.86275208  0.10498980     0.08400
C118        C  0.49013628  0.84621421  0.07067197    -0.01800
Br119      Br  0.47859888  0.76797625  0.05550165    -0.00300
Br120      Br  0.41630659  0.88969547  0.03987453    -0.00400
Br121      Br  0.05081414  0.94642005  0.16147634    -0.00300
Br122      Br  0.08923899  0.98152162  0.11676606    -0.00300
C123        C  0.00903612  0.93853402  0.44969261    -0.01500
C124        C  0.46717166  0.94129984  0.44823295     0.08200
C125        C  0.43125290  0.90932618  0.41637441    -0.01600
C126        C  0.44103038  0.88138146  0.39386361    -0.01600
C127        C  0.48517201  0.86323730  0.40655481     0.08400
C128        C  0.02007227  0.88806325  0.43819633    -0.01800
Br129      Br  0.08176799  0.87398846  0.45225924    -0.00300
Br130      Br  0.01008129  0.98586734  0.41561711    -0.00400
Br131      Br  0.39488892  0.87280907  0.34455196    -0.00300
Br132      Br  0.36788618  0.88945077  0.39783429    -0.00300
C133        C  0.01420666  0.12592348  0.43675432    -0.01500
C134        C  0.48354440  0.12130710  0.40078801     0.08200
C135        C  0.44349336  0.09088730  0.38893065    -0.01600
C136        C  0.43731601  0.06155673  0.41314200    -0.01600
C137        C  0.46686045  0.07042751  0.45092985     0.08400
C138        C  0.49697266  0.11755815  0.45739304    -0.01800
Br139      Br  0.97800680  0.19573900  0.45550258    -0.00300
Br140      Br  0.07169536  0.16482321  0.45635839    -0.00400
Br141      Br  0.38351380  0.01843088  0.38834913    -0.00300
Br142      Br  0.39617945  0.09234879  0.33932618    -0.00300
C143        C  0.46809293  0.07395199  0.05962813    -0.01500
C144        C  0.00767175  0.06731367  0.05837219     0.08200
C145        C  0.04708665  0.09508346  0.08970754    -0.01600
C146        C  0.04189003  0.12559928  0.11413438    -0.01600
C147        C  0.49908752  0.14628795  0.10417962     0.08400
C148        C  0.46149248  0.12469425  0.07317880    -0.01800
Br149      Br  0.40142229  0.14786693  0.05999307    -0.00300
Br150      Br  0.46271563  0.02504802  0.09095660    -0.00400
Br151      Br  0.09289707  0.13865115  0.16116026    -0.00300
Br152      Br  0.10969873  0.10351660  0.10303353    -0.00300
C153        C  0.15520201  0.60163704  0.24426390    -0.01500
C154        C  0.17626713  0.58966447  0.22558279     0.08200
C155        C  0.15421067  0.62615204  0.19525114    -0.01600
C156        C  0.10701306  0.63689166  0.17611475    -0.01600
C157        C  0.08463025  0.63515637  0.19323169     0.08400
C158        C  0.10793933  0.61248117  0.22657906    -0.01800
Br159      Br  0.07712759  0.60918498  0.25055418    -0.00300
Br160      Br  0.17751273  0.65859113  0.28074594    -0.00400
Br161      Br  0.07620783  0.66630125  0.12951015    -0.00300
Br162      Br  0.17319614  0.70400123  0.20024562    -0.00300
C163        C  0.08678520  0.43049830  0.21271325    -0.01500
C164        C  0.08548119  0.37155728  0.20862320     0.08200
C165        C  0.12365661  0.34446540  0.21331483    -0.01600
C166        C  0.16319902  0.37580042  0.22315225    -0.01600
C167        C  0.16516887  0.43778692  0.22368871     0.08400
C168        C  0.12125545  0.46245222  0.21332108    -0.01800
Br169      Br  0.08606741  0.51132446  0.17531726    -0.00300
Br170      Br  0.03733111  0.46742752  0.21247790    -0.00400
Br171      Br  0.21084481  0.32684464  0.23191968    -0.00300
Br172      Br  0.12096571  0.26295395  0.20494029    -0.00300
C173        C  0.39219883  0.82513139  0.46782193    -0.01500
C174        C  0.34988539  0.84403260  0.45972054     0.08200
C175        C  0.34131848  0.90228585  0.45722915    -0.01600
C176        C  0.37242436  0.94136541  0.45821230    -0.01600
C177        C  0.42040994  0.92684651  0.47361006     0.08400
C178        C  0.42679492  0.86472954  0.47521926    -0.01800
Br179      Br  0.47755661  0.82693624  0.47915802    -0.00300
Br180      Br  0.40039441  0.74361321  0.46451673    -0.00400
Br181      Br  0.33642323  0.00153211  0.42642514    -0.00300
Br182      Br  0.28537666  0.92848268  0.45204297    -0.00300
C183        C  0.05953542  0.87158229  0.04314732    -0.01500
C184        C  0.05497925  0.93084422  0.03346560     0.08200
C185        C  0.09814676  0.94839827  0.04033349    -0.01600
C186        C  0.12483413  0.91067275  0.03432118    -0.01600
C187        C  0.11934899  0.85181450  0.03442075     0.08400
C188        C  0.08177137  0.83243296  0.03399563    -0.01800
Br189      Br  0.07296545  0.75147637  0.03622163    -0.00300
Br190      Br  0.09239656  0.85285739  0.09197371    -0.00400
Br191      Br  0.17436189  0.93846210  0.03172922    -0.00300
Br192      Br  0.14227227  0.98948063  0.08114552    -0.00300
C193        C  0.24306467  0.66017231  0.18474416    -0.01500
C194        C  0.22397803  0.63960457  0.15051710     0.08200
C195        C  0.20754588  0.58362486  0.14390427    -0.01600
C196        C  0.20055022  0.55766052  0.16782562    -0.01600
C197        C  0.22910464  0.56890293  0.20506166     0.08400
C198        C  0.25623470  0.61970780  0.21107590    -0.01800
Br199      Br  0.31632820  0.61851440  0.21820915    -0.00300
Br200      Br  0.26382564  0.73848001  0.19901472    -0.00400
Br201      Br  0.14074134  0.52940815  0.14223348    -0.00300
Br202      Br  0.18900260  0.54294915  0.10124747    -0.00300
C203        C  0.29125570  0.62864229  0.35689355    -0.01500
C204        C  0.25941674  0.61324108  0.36356706     0.08200
C205        C  0.22998629  0.56902502  0.34489449    -0.01600
C206        C  0.22772309  0.54701148  0.31524536    -0.01600
C207        C  0.26324457  0.55690788  0.30883285     0.08400
C208        C  0.29987847  0.59226064  0.33714457    -0.01800
Br209      Br  0.36577348  0.59232346  0.35918163    -0.00300
Br210      Br  0.32378948  0.69982666  0.37531471    -0.00400
Br211      Br  0.17227694  0.50899655  0.28665444    -0.00300
Br212      Br  0.18811757  0.54665847  0.35759344    -0.00300
C213        C  0.30876638  0.62975063  0.28310129    -0.01500
C214        C  0.30905129  0.56750181  0.28147948     0.08200
C215        C  0.35384729  0.54692799  0.29186527    -0.01600
C216        C  0.38875566  0.58266266  0.29577398    -0.01600
C217        C  0.38719543  0.64132460  0.29995058     0.08400
C218        C  0.34729300  0.66455823  0.29436789    -0.01800
Br219      Br  0.34704193  0.74449796  0.30574086    -0.00300
Br220      Br  0.25908853  0.67383078  0.27478060    -0.00400
Br221      Br  0.44021190  0.55090937  0.29640964    -0.00300
Br222      Br  0.38322381  0.48327993  0.31885637    -0.00300
C223        C  0.36730168  0.35833924  0.32595233    -0.01500
C224        C  0.38667338  0.35536289  0.30668115     0.08200
C225        C  0.36155885  0.37671274  0.27294241    -0.01600
C226        C  0.31506259  0.39114091  0.25717726    -0.01600
C227        C  0.29735822  0.40740951  0.27787263     0.08400
C228        C  0.32051976  0.37149755  0.30858027    -0.01800
Br229      Br  0.30086991  0.29438456  0.30517911    -0.00300
Br230      Br  0.40130312  0.33171256  0.37332659    -0.00400
Br231      Br  0.28926321  0.33233004  0.22178660    -0.00300
Br232      Br  0.38942226  0.37923117  0.24687375    -0.00300
C233        C  0.34983510  0.10959203  0.47994829    -0.01500
C234        C  0.35025619  0.16478274  0.46984835     0.08200
C235        C  0.38555303  0.17997313  0.46671696    -0.01600
C236        C  0.40530367  0.13537270  0.45884313    -0.01600
C237        C  0.41651438  0.08076552  0.47647730     0.08400
C238        C  0.38692183  0.07205272  0.48902140    -0.01800
Br239      Br  0.38458687  0.01090607  0.51345754    -0.00300
Br240      Br  0.29883841  0.08868112  0.48311214    -0.00400
Br241      Br  0.36845130  0.14210704  0.40889153    -0.00300
Br242      Br  0.39067423  0.25830341  0.45650564    -0.00300
C243        C  0.27862825  0.44327856  0.33779936    -0.01500
C244        C  0.24779777  0.43249336  0.30061070     0.08200
C245        C  0.22012155  0.38249519  0.29527576    -0.01600
C246        C  0.23391584  0.34268243  0.32188448    -0.01600
C247        C  0.25393244  0.36452892  0.35581379     0.08400
C248        C  0.27225342  0.41922171  0.36243450    -0.01800
Br249      Br  0.29826623  0.45615373  0.40736177    -0.00300
Br250      Br  0.34004404  0.46589844  0.36160552    -0.00400
Br251      Br  0.21196167  0.26425761  0.30891611    -0.00300
Br252      Br  0.16061751  0.38328720  0.28953903    -0.00300
C253        C  0.07512532  0.18815106  0.03815077    -0.01500
C254        C  0.11682673  0.16860242  0.04490026     0.08200
C255        C  0.12066750  0.11155984  0.03828436    -0.01600
C256        C  0.08278948  0.07468611  0.02435075    -0.01600
C257        C  0.04371893  0.08771778  0.02538862     0.08400
C258        C  0.04009790  0.14894989  0.03039487    -0.01800
Br259      Br  0.98995519  0.18506026  0.02941178    -0.00300
Br260      Br  0.06740978  0.26915332  0.04218895    -0.00400
Br261      Br  0.08009473  0.03053758  0.98922871    -0.00300
Br262      Br  0.17651788  0.08655770  0.04286938    -0.00300
C263        C  0.24924311  0.43044132  0.16289832    -0.01500
C264        C  0.21972661  0.38665410  0.14355833     0.08200
C265        C  0.18765957  0.37010468  0.14978801    -0.01600
C266        C  0.17841213  0.40521090  0.16969799    -0.01600
C267        C  0.21371648  0.44253679  0.19740880     0.08400
C268        C  0.25005013  0.45282034  0.19189340    -0.01800
Br269      Br  0.30525175  0.49143015  0.22161765    -0.00300
Br270      Br  0.29354605  0.45108492  0.15229823    -0.00400
Br271      Br  0.11265750  0.40252810  0.14719003    -0.00300
Br272      Br  0.15564767  0.29859538  0.13037007    -0.00300
O273        O  0.21118172  0.36913158  0.58943644    -0.57400
C274        C  0.22588270  0.28686819  0.51278387     0.75200
O275        O  0.30233188  0.22307313  0.60686035    -0.58600
C276        C  0.22563659  0.35262719  0.61990387     0.75200
C277        C  0.15565640  0.20766469  0.55628351     0.77600
Cd278      Cd  0.23165940  0.27918348  0.57511912     1.37500
O279        O  0.22365620  0.33254948  0.52674744    -0.57400
O280        O  0.15058539  0.25424873  0.54106341    -0.56200
C281        C  0.32725958  0.26549104  0.61163835     0.77500
O282        O  0.19600246  0.19481388  0.58075919    -0.58600
O283        O  0.22726200  0.24011142  0.52654976    -0.57100
O284        O  0.24377646  0.30392445  0.62913075    -0.57000
O285        O  0.30787087  0.31313301  0.60040630    -0.56200
O286        O  0.24624833  0.35953307  0.90419968    -0.57400
C287        C  0.22781359  0.28585443  0.98238811     0.75200
O288        O  0.16386255  0.21619883  0.88694346    -0.58600
C289        C  0.24972909  0.33385070  0.88146930     0.75200
C290        C  0.30985788  0.20165842  0.95559673     0.77600
Cd291      Cd  0.23220031  0.27269461  0.92446016     1.37500
O292        O  0.23693954  0.32943917  0.97132277    -0.57400
O293        O  0.31243480  0.25212362  0.96654459    -0.56200
C294        C  0.13731525  0.25798855  0.88061355     0.77500
O295        O  0.27106098  0.18424018  0.93084432    -0.58600
O296        O  0.22196972  0.23892158  0.96685059    -0.57100
O297        O  0.24711159  0.28029153  0.88060519    -0.57000
O298        O  0.15492510  0.30649917  0.89175769    -0.56200
C299        C  0.25771327  0.45724084  0.77155506    -0.02100
C300        C  0.26492914  0.53186075  0.77569673    -0.02100
O301        O  0.23147261  0.67586155  0.53115218    -0.57400
C302        C  0.22588960  0.67319467  0.62417428     0.75200
O303        O  0.30802510  0.78865648  0.61120304    -0.58600
C304        C  0.23834019  0.71905905  0.51835291     0.75200
C305        C  0.15921589  0.81346610  0.54679828     0.77600
Cd306      Cd  0.23576892  0.73673552  0.57651724     1.37500
O307        O  0.20909909  0.65569145  0.59332099    -0.57400
O308        O  0.15530716  0.76347348  0.53494172    -0.56200
C309        C  0.33214963  0.74573498  0.61400030     0.77500
O310        O  0.19882284  0.82811448  0.57178366    -0.58600
O311        O  0.24579646  0.72066816  0.63172184    -0.57100
O312        O  0.24136254  0.76736939  0.53175701    -0.57000
O313        O  0.31177582  0.69913604  0.60107897    -0.56200
O314        O  0.24857957  0.67029764  0.97741863    -0.57400
C315        C  0.25321806  0.64851820  0.88667203     0.75200
O316        O  0.17097186  0.77443131  0.89305387    -0.58600
C317        C  0.24177515  0.71622360  0.98872796     0.75200
C318        C  0.31272079  0.80298105  0.94971065     0.77600
Cd319      Cd  0.24146266  0.72231210  0.92887376     1.37500
O320        O  0.26792970  0.63378636  0.91748373    -0.57400
O321        O  0.31940997  0.75793246  0.96667229    -0.56200
C322        C  0.14607234  0.73341246  0.89043955     0.77500
O323        O  0.27277858  0.81068171  0.92317778    -0.58600
O324        O  0.23341687  0.69605942  0.87624865    -0.57100
O325        O  0.23810562  0.76206968  0.97340853    -0.57000
O326        O  0.16536557  0.68685506  0.90439565    -0.56200
C327        C  0.21078807  0.46911741  0.72955671    -0.02100
C328        C  0.21805332  0.54304917  0.73343002    -0.02100
O329        O  0.48441629  0.19226124  0.71804240    -0.57400
C330        C  0.49246159  0.18303932  0.62746215     0.75200
O331        O  0.40085151  0.30360309  0.63413156    -0.58600
C332        C  0.47450425  0.23311496  0.73100085     0.75200
C333        C  0.04436761  0.33698268  0.69738825     0.77600
Cd334      Cd  0.47291721  0.25304005  0.66996031     1.37500
O335        O  0.50349056  0.16696346  0.65724852    -0.57400
O336        O  0.04766704  0.29124486  0.71272898    -0.56200
C337        C  0.37654024  0.26084532  0.62982058     0.77500
O338        O  0.50573212  0.34769064  0.67008849    -0.58600
O339        O  0.47354923  0.23131593  0.61784037    -0.57100
O340        O  0.46412967  0.28032995  0.71556777    -0.57000
O341        O  0.39675425  0.21404125  0.64240737    -0.56200
O342        O  0.48084238  0.18273425  0.77855784    -0.57400
C343        C  0.48883072  0.15723343  0.87687443     0.75200
O344        O  0.06320212  0.29058604  0.86155006    -0.58600
C345        C  0.47740620  0.22926565  0.76359499     0.75200
C346        C  0.42441328  0.31542762  0.81673145     0.77600
Cd347      Cd  0.99390358  0.23431892  0.83100018     1.37500
O348        O  0.47570570  0.14179676  0.84630163    -0.57400
O349        O  0.41594674  0.26651496  0.80268560    -0.56200
C350        C  0.08848673  0.25055184  0.86295841     0.77500
O351        O  0.46583138  0.32747501  0.83895381    -0.58600
O352        O  0.00490219  0.20692323  0.88572359    -0.57100
O353        O  0.97808150  0.27464236  0.77866683    -0.57000
O354        O  0.07000666  0.20314212  0.84986697    -0.56200
C355        C  0.45972551  0.04222895  0.98119319    -0.02100
C356        C  0.46199662  0.96793662  0.98011194    -0.02100
O357        O  0.51335270  0.83859618  0.65895591    -0.57400
C358        C  0.49017363  0.76591296  0.73608750     0.75200
O359        O  0.40544744  0.70602038  0.63496775    -0.58600
C360        C  0.49730713  0.82733980  0.62731090     0.75200
C361        C  0.04647498  0.67408608  0.68302706     0.77600
Cd362      Cd  0.47836047  0.75633107  0.66885092     1.37500
O363        O  0.49054879  0.81064451  0.72110893    -0.57400
O364        O  0.00503951  0.66153884  0.66108256    -0.56200
C365        C  0.38153373  0.74949255  0.63140126     0.77500
O366        O  0.55481725  0.72235562  0.69755237    -0.58600
O367        O  0.48637980  0.71923352  0.72084128    -0.57100
O368        O  0.47107466  0.78487254  0.61502572    -0.57000
O369        O  0.40219126  0.79615753  0.64353975    -0.56200
O370        O  0.48443119  0.84605405  0.85450992    -0.57400
C371        C  0.49383563  0.76596541  0.76947731     0.75200
O372        O  0.07170589  0.69940491  0.86939194    -0.58600
C373        C  0.99394610  0.82821199  0.88363360     0.75200
C374        C  0.42730614  0.67844547  0.81155346     0.77600
Cd375      Cd  0.00213714  0.75584291  0.83521673     1.37500
O376        O  0.49035593  0.81039653  0.78387457    -0.57400
O377        O  0.42264735  0.72745173  0.79887765    -0.56200
C378        C  0.09710065  0.73999980  0.87224869     0.77500
O379        O  0.46755940  0.66405539  0.83539745    -0.58600
O380        O  0.00000995  0.71950665  0.78499352    -0.57100
O381        O  0.00848137  0.77760361  0.89102795    -0.57000
O382        O  0.07840305  0.78703117  0.85883166    -0.56200
C383        C  0.00727176  0.04308059  0.52373584    -0.02100
C384        C  0.00922166  0.96897330  0.52389091    -0.02100
C385        C  0.47487236  0.88949949  0.54577503    -0.01500
C386        C  0.00051143  0.94135029  0.55291041     0.08200
C387        C  0.03077359  0.94889017  0.59080714    -0.01600
C388        C  0.02592469  0.91707809  0.61472905    -0.01600
C389        C  0.50638740  0.86276155  0.60499858     0.08400
C390        C  0.49014719  0.84622119  0.57068175    -0.01800
Br391      Br  0.47861769  0.76798158  0.55551550    -0.00300
Br392      Br  0.41631296  0.88969825  0.53987970    -0.00400
Br393      Br  0.05081111  0.94643032  0.66148092    -0.00300
Br394      Br  0.08923735  0.98154131  0.61677243    -0.00300
C395        C  0.00903657  0.93853387  0.94969066    -0.01500
C396        C  0.46716964  0.94129936  0.94822925     0.08200
C397        C  0.43125088  0.90932766  0.91636993    -0.01600
C398        C  0.44102921  0.88138230  0.89385999    -0.01600
C399        C  0.48517040  0.86323405  0.90655265     0.08400
C400        C  0.02007251  0.88806389  0.93819337    -0.01800
Br401      Br  0.08176780  0.87398997  0.95225388    -0.00300
Br402      Br  0.01008316  0.98587008  0.91561681    -0.00400
Br403      Br  0.39489057  0.87281980  0.84454727    -0.00300
Br404      Br  0.36788375  0.88945220  0.89782891    -0.00300
C405        C  0.01420646  0.12592586  0.93675285    -0.01500
C406        C  0.48354129  0.12130827  0.90078620     0.08200
C407        C  0.44349479  0.09087863  0.88892974    -0.01600
C408        C  0.43731774  0.06155253  0.91314237    -0.01600
C409        C  0.46686080  0.07042755  0.95092930     0.08400
C410        C  0.49697234  0.11755924  0.95739228    -0.01800
Br411      Br  0.97801561  0.19573889  0.95551030    -0.00300
Br412      Br  0.07169508  0.16482541  0.95635483    -0.00400
Br413      Br  0.38351146  0.01843547  0.88835417    -0.00300
Br414      Br  0.39618857  0.09231209  0.83932329    -0.00300
C415        C  0.46809323  0.07396068  0.55962916    -0.01500
C416        C  0.00767161  0.06732265  0.55837274     0.08200
C417        C  0.04708497  0.09510082  0.58970498    -0.01600
C418        C  0.04188704  0.12562566  0.61412871    -0.01600
C419        C  0.49908722  0.14629934  0.60417950     0.08400
C420        C  0.46149216  0.12470259  0.57318001    -0.01800
Br421      Br  0.40142262  0.14786989  0.55999875    -0.00300
Br422      Br  0.46271354  0.02505845  0.59095672    -0.00400
Br423      Br  0.09289729  0.13871404  0.66114818    -0.00300
Br424      Br  0.10969794  0.10352611  0.60303070    -0.00300
C425        C  0.15519111  0.60162118  0.74425168    -0.01500
C426        C  0.17626143  0.58965753  0.72557435     0.08200
C427        C  0.15420662  0.62614641  0.69524354    -0.01600
C428        C  0.10700842  0.63688291  0.67610439    -0.01600
C429        C  0.08462166  0.63513947  0.69321823     0.08400
C430        C  0.10792739  0.61245671  0.72656362    -0.01800
Br431      Br  0.07711096  0.60914855  0.75053467    -0.00300
Br432      Br  0.17749154  0.65858068  0.78072927    -0.00400
Br433      Br  0.07620885  0.66630289  0.62950248    -0.00300
Br434      Br  0.17319561  0.70399393  0.70024206    -0.00300
C435        C  0.08677997  0.43050749  0.71270347    -0.01500
C436        C  0.08548050  0.37156496  0.70862402     0.08200
C437        C  0.12365984  0.34446855  0.71332503    -0.01600
C438        C  0.16319892  0.37580350  0.72315275    -0.01600
C439        C  0.16516659  0.43778981  0.72368307     0.08400
C440        C  0.12125095  0.46245715  0.71330973    -0.01800
Br441      Br  0.08605955  0.51131216  0.67529524    -0.00300
Br442      Br  0.03731106  0.46743995  0.71244706    -0.00400
Br443      Br  0.21084439  0.32684804  0.73191534    -0.00300
Br444      Br  0.12098654  0.26294504  0.70499411    -0.00300
C445        C  0.39219259  0.82513027  0.96781657    -0.01500
C446        C  0.34988038  0.84403142  0.95971717     0.08200
C447        C  0.34131359  0.90228424  0.95722629    -0.01600
C448        C  0.37241830  0.94136412  0.95820786    -0.01600
C449        C  0.42040433  0.92684567  0.97360439     0.08400
C450        C  0.42678819  0.86472830  0.97521254    -0.01800
Br451      Br  0.47754734  0.82693329  0.97914895    -0.00300
Br452      Br  0.40038736  0.74361159  0.96451263    -0.00400
Br453      Br  0.33641264  0.00153019  0.92642180    -0.00300
Br454      Br  0.28537397  0.92847869  0.95204506    -0.00300
C455        C  0.05954142  0.87158675  0.54316007    -0.01500
C456        C  0.05498153  0.93084617  0.53347181     0.08200
C457        C  0.09814785  0.94839911  0.54033782    -0.01600
C458        C  0.12483447  0.91067100  0.53432606    -0.01600
C459        C  0.11935159  0.85181254  0.53443003     0.08400
C460        C  0.08177719  0.83243308  0.53401041    -0.01800
Br461      Br  0.07297293  0.75147823  0.53624344    -0.00300
Br462      Br  0.09240761  0.85287401  0.59198869    -0.00400
Br463      Br  0.17436020  0.93845869  0.53173128    -0.00300
Br464      Br  0.14227374  0.98947843  0.58115122    -0.00300
C465        C  0.24307135  0.66018062  0.68475069    -0.01500
C466        C  0.22398099  0.63962094  0.65052143     0.08200
C467        C  0.20754678  0.58364161  0.64390377    -0.01600
C468        C  0.20055344  0.55766817  0.66782391    -0.01600
C469        C  0.22910647  0.56890566  0.70506038     0.08400
C470        C  0.25623848  0.61971015  0.71107876    -0.01800
Br471      Br  0.31632892  0.61851908  0.71820610    -0.00300
Br472      Br  0.26383879  0.73848514  0.69902963    -0.00400
Br473      Br  0.14075234  0.52939129  0.64223085    -0.00300
Br474      Br  0.18899645  0.54297707  0.60124133    -0.00300
C475        C  0.29125240  0.62863327  0.85689529    -0.01500
C476        C  0.25940683  0.61323680  0.86356262     0.08200
C477        C  0.22997254  0.56902673  0.84488578    -0.01600
C478        C  0.22771389  0.54701197  0.81523874    -0.01600
C479        C  0.26323828  0.55690744  0.80882924     0.08400
C480        C  0.29987376  0.59225512  0.83714399    -0.01800
Br481      Br  0.36576868  0.59232018  0.85917907    -0.00300
Br482      Br  0.32379659  0.69980881  0.87532876    -0.00400
Br483      Br  0.17227144  0.50898938  0.78664814    -0.00300
Br484      Br  0.18809525  0.54666786  0.85757819    -0.00300
C485        C  0.30876204  0.62975382  0.78310228    -0.01500
C486        C  0.30904581  0.56750487  0.78147688     0.08200
C487        C  0.35383938  0.54693072  0.79185758    -0.01600
C488        C  0.38874332  0.58266599  0.79576041    -0.01600
C489        C  0.38718838  0.64132643  0.79994526     0.08400
C490        C  0.34729026  0.66455943  0.79437100    -0.01800
Br491      Br  0.34704990  0.74449109  0.80576286    -0.00300
Br492      Br  0.25908488  0.67383508  0.77478466    -0.00400
Br493      Br  0.44018102  0.55091434  0.79637060    -0.00300
Br494      Br  0.38323003  0.48329955  0.81886411    -0.00300
C495        C  0.36730610  0.35835597  0.82595297    -0.01500
C496        C  0.38667974  0.35538532  0.80668323     0.08200
C497        C  0.36156576  0.37673646  0.77294475    -0.01600
C498        C  0.31506790  0.39115705  0.75717841    -0.01600
C499        C  0.29736165  0.40742123  0.77787259     0.08400
C500        C  0.32052356  0.37150982  0.80857987    -0.01800
Br501      Br  0.30087537  0.29439673  0.80517680    -0.00300
Br502      Br  0.40130726  0.33172586  0.87332644    -0.00400
Br503      Br  0.28927193  0.33234263  0.72179039    -0.00300
Br504      Br  0.38942891  0.37925509  0.74687594    -0.00300
C505        C  0.34983058  0.10958483  0.97994188    -0.01500
C506        C  0.35025197  0.16477714  0.96984409     0.08200
C507        C  0.38555220  0.17997139  0.96671763    -0.01600
C508        C  0.40530536  0.13537427  0.95884393    -0.01600
C509        C  0.41651332  0.08076409  0.97647481     0.08400
C510        C  0.38691982  0.07204876  0.98901750    -0.01800
Br511      Br  0.38458790  0.01090392  0.01345585    -0.00300
Br512      Br  0.29883027  0.08866555  0.98309908    -0.00400
Br513      Br  0.36846275  0.14211995  0.90889278    -0.00300
Br514      Br  0.39067792  0.25830423  0.95651320    -0.00300
C515        C  0.27862167  0.44327965  0.83779603    -0.01500
C516        C  0.24779485  0.43249291  0.80060732     0.08200
C517        C  0.22012017  0.38249333  0.79527237    -0.01600
C518        C  0.23391523  0.34268008  0.82188100    -0.01600
C519        C  0.25392692  0.36452672  0.85581064     0.08400
C520        C  0.27224337  0.41922353  0.86242968    -0.01800
Br521      Br  0.29823870  0.45617520  0.90734942    -0.00300
Br522      Br  0.34003852  0.46589763  0.86160585    -0.00400
Br523      Br  0.21196915  0.26425300  0.80890794    -0.00300
Br524      Br  0.16061764  0.38328147  0.78953966    -0.00300
C525        C  0.07512458  0.18815203  0.53814369    -0.01500
C526        C  0.11682776  0.16860110  0.54489714     0.08200
C527        C  0.12066899  0.11155631  0.53828497    -0.01600
C528        C  0.08279052  0.07468324  0.52435203    -0.01600
C529        C  0.04371921  0.08771873  0.52538803     0.08400
C530        C  0.04009746  0.14895210  0.53039041    -0.01800
Br531      Br  0.98995531  0.18506466  0.52940751    -0.00300
Br532      Br  0.06740491  0.26915631  0.54217157    -0.00400
Br533      Br  0.08009404  0.03053341  0.48922979    -0.00300
Br534      Br  0.17651968  0.08654991  0.54287232    -0.00300
C535        C  0.24923854  0.43044987  0.66289017    -0.01500
C536        C  0.21972879  0.38665514  0.64355437     0.08200
C537        C  0.18766577  0.37009798  0.64978640    -0.01600
C538        C  0.17841649  0.40520167  0.66969644    -0.01600
C539        C  0.21371768  0.44253435  0.69740527     0.08400
C540        C  0.25004819  0.45282450  0.69188708    -0.01800
Br541      Br  0.30525014  0.49143522  0.72160910    -0.00300
Br542      Br  0.29352571  0.45111765  0.65227847    -0.00400
Br543      Br  0.11266259  0.40250665  0.64718932    -0.00300
Br544      Br  0.15565503  0.29858814  0.63036400    -0.00300
O545        O  0.71121865  0.36905242  0.08948940    -0.57400
C546        C  0.72585864  0.28680988  0.01279495     0.75200
O547        O  0.80232170  0.22299075  0.10688071    -0.58600
C548        C  0.72572396  0.35254855  0.11996624     0.75200
C549        C  0.65564963  0.20763858  0.05630466     0.77600
Cd550      Cd  0.73166163  0.27911870  0.07513778     1.37500
O551        O  0.72363656  0.33248843  0.02676323    -0.57400
O552        O  0.65058549  0.25422915  0.04109277    -0.56200
C553        C  0.82724912  0.26538932  0.11162155     0.77500
O554        O  0.69599319  0.19477011  0.08077650    -0.58600
O555        O  0.72723634  0.24004876  0.02655699    -0.57100
O556        O  0.74387574  0.30385114  0.12918346    -0.57000
O557        O  0.80786294  0.31302336  0.10035603    -0.56200
O558        O  0.74626678  0.35951645  0.40422775    -0.57400
C559        C  0.72781229  0.28580885  0.48240362     0.75200
O560        O  0.66385468  0.21622581  0.38695659    -0.58600
C561        C  0.74970614  0.33384183  0.38147539     0.75200
C562        C  0.80987177  0.20167484  0.45561659     0.77600
Cd563      Cd  0.73220070  0.27268973  0.42447780     1.37500
O564        O  0.73691719  0.32940847  0.47133495    -0.57400
O565        O  0.81243994  0.25213746  0.46656556    -0.56200
C566        C  0.63731395  0.25801468  0.38064698     0.77500
O567        O  0.77107937  0.18425307  0.43085879    -0.58600
O568        O  0.72199472  0.23887509  0.46687229    -0.57100
O569        O  0.74705272  0.28028526  0.38059140    -0.57000
O570        O  0.65493010  0.30651789  0.39181003    -0.56200
C571        C  0.75774366  0.45724339  0.27158863    -0.02100
C572        C  0.76494795  0.53186172  0.27572490    -0.02100
O573        O  0.73153723  0.67585348  0.03118436    -0.57400
C574        C  0.72596305  0.67316534  0.12420979     0.75200
O575        O  0.80802425  0.78866556  0.11121073    -0.58600
C576        C  0.73835771  0.71906158  0.01836360     0.75200
C577        C  0.65924456  0.81352340  0.04681636     0.77600
Cd578      Cd  0.73577673  0.73674754  0.07652277     1.37500
O579        O  0.70882658  0.65588060  0.09326941    -0.57400
O580        O  0.65533958  0.76353873  0.03495351    -0.56200
C581        C  0.83214435  0.74576494  0.11396420     0.77500
O582        O  0.69884834  0.82816140  0.07181415    -0.58600
O583        O  0.74619655  0.72041471  0.13183726    -0.57100
O584        O  0.74133363  0.76737717  0.03174678    -0.57000
O585        O  0.81176870  0.69917901  0.10100019    -0.56200
O586        O  0.74860359  0.67029974  0.47743244    -0.57400
C587        C  0.75319692  0.64855696  0.38666945     0.75200
O588        O  0.67098841  0.77443891  0.39308068    -0.58600
C589        C  0.74184197  0.71623181  0.48876272     0.75200
C590        C  0.81274681  0.80297043  0.44971519     0.77600
Cd591      Cd  0.74148465  0.72232771  0.42889283     1.37500
O592        O  0.76796647  0.63384220  0.41749439    -0.57400
O593        O  0.81944253  0.75790511  0.46666442    -0.56200
C594        C  0.64609500  0.73341725  0.39047361     0.77500
O595        O  0.77279673  0.81069290  0.42319599    -0.58600
O596        O  0.73335488  0.69607390  0.37624080    -0.57100
O597        O  0.73820306  0.76208539  0.47345902    -0.57000
O598        O  0.66539591  0.68686971  0.40444333    -0.56200
C599        C  0.71083773  0.46910857  0.22958326    -0.02100
C600        C  0.71808512  0.54304004  0.23345002    -0.02100
O601        O  0.98438205  0.19218000  0.21804248    -0.57400
C602        C  0.99246439  0.18297420  0.12747629     0.75200
O603        O  0.90083810  0.30348386  0.13409483    -0.58600
C604        C  0.97446442  0.23303835  0.23099446     0.75200
C605        C  0.54439432  0.33702330  0.19737915     0.77600
Cd606      Cd  0.97290267  0.25295383  0.16996573     1.37500
O607        O  0.00354045  0.16691983  0.15727803    -0.57400
O608        O  0.54769403  0.29127416  0.21271093    -0.56200
C609        C  0.87652877  0.26073693  0.12980752     0.77500
O610        O  0.00569703  0.34762726  0.17010090    -0.58600
O611        O  0.97349501  0.23121640  0.11783698    -0.57100
O612        O  0.96408722  0.28024890  0.21555624    -0.57000
O613        O  0.89674453  0.21394582  0.14242831    -0.56200
O614        O  0.98081913  0.18267977  0.27856325    -0.57400
C615        C  0.98884148  0.15720840  0.37688170     0.75200
O616        O  0.56319330  0.29062050  0.36156205    -0.58600
C617        C  0.97737271  0.22920403  0.26359099     0.75200
C618        C  0.92445012  0.31543969  0.31677255     0.77600
Cd619      Cd  0.49390314  0.23433425  0.33099757     1.37500
O620        O  0.97568038  0.14178989  0.34629886    -0.57400
O621        O  0.91596648  0.26653957  0.30271020    -0.56200
C622        C  0.58848504  0.25058128  0.36298643     0.77500
O623        O  0.96587392  0.32745999  0.33899482    -0.58600
O624        O  0.50486556  0.20695714  0.38571108    -0.57100
O625        O  0.47815396  0.27469371  0.27869119    -0.57000
O626        O  0.57001127  0.20316607  0.34990110    -0.56200
C627        C  0.95973590  0.04223673  0.48121064    -0.02100
C628        C  0.96200871  0.96794683  0.48012634    -0.02100
O629        O  0.01327054  0.83868017  0.15893526    -0.57400
C630        C  0.99016409  0.76593386  0.23609433     0.75200
O631        O  0.90544571  0.70606341  0.13493433    -0.58600
C632        C  0.99730843  0.82734572  0.12731233     0.75200
C633        C  0.54646573  0.67403985  0.18301306     0.77600
Cd634      Cd  0.97835589  0.75636763  0.16885768     1.37500
O635        O  0.99055898  0.81066571  0.22112464    -0.57400
O636        O  0.50502891  0.66149392  0.16107057    -0.56200
C637        C  0.88152885  0.74952816  0.13137402     0.77500
O638        O  0.05482916  0.72246706  0.19753234    -0.58600
O639        O  0.98635465  0.71925758  0.22084048    -0.57100
O640        O  0.97114490  0.78481298  0.11504620    -0.57000
O641        O  0.90218492  0.79618804  0.14353477    -0.56200
O642        O  0.98440689  0.84609202  0.35449887    -0.57400
C643        C  0.99382071  0.76598530  0.26948231     0.75200
O644        O  0.57172780  0.69937889  0.36940048    -0.58600
C645        C  0.49395896  0.82815899  0.38364424     0.75200
C646        C  0.92732600  0.67846126  0.31160785     0.77600
Cd647      Cd  0.50215174  0.75580435  0.33521652     1.37500
O648        O  0.99037631  0.81042330  0.28389206    -0.57400
O649        O  0.92264351  0.72745889  0.29891532    -0.56200
C650        C  0.59712025  0.73998764  0.37227059     0.77500
O651        O  0.96758721  0.66409457  0.33544768    -0.58600
O652        O  0.50006362  0.71947822  0.28500449    -0.57100
O653        O  0.50847697  0.77754208  0.39102773    -0.57000
O654        O  0.57841686  0.78701591  0.35885155    -0.56200
C655        C  0.50725098  0.04307836  0.02372282    -0.02100
C656        C  0.50920433  0.96897146  0.02387914    -0.02100
C657        C  0.97488553  0.88949661  0.04577823    -0.01500
C658        C  0.50048567  0.94134502  0.05289421     0.08200
C659        C  0.53073329  0.94889321  0.09079034    -0.01600
C660        C  0.52587610  0.91708144  0.11470754    -0.01600
C661        C  0.00640148  0.86275286  0.10500112     0.08400
C662        C  0.99015341  0.84621524  0.07068194    -0.01800
Br663      Br  0.97860514  0.76798084  0.05550454    -0.00300
Br664      Br  0.91632643  0.88970174  0.03988097    -0.00400
Br665      Br  0.55071596  0.94645736  0.16144655    -0.00300
Br666      Br  0.58920479  0.98152050  0.11676513    -0.00300
C667        C  0.50903284  0.93850587  0.44968711    -0.01500
C668        C  0.96717435  0.94133147  0.44823709     0.08200
C669        C  0.93125059  0.90937881  0.41637166    -0.01600
C670        C  0.94102343  0.88145466  0.39385344    -0.01600
C671        C  0.98516137  0.86329057  0.40654582     0.08400
C672        C  0.52007852  0.88803153  0.43819906    -0.01800
Br673      Br  0.58177514  0.87397391  0.45225932    -0.00300
Br674      Br  0.51006448  0.98583481  0.41560491    -0.00400
Br675      Br  0.89488379  0.87294120  0.34453676    -0.00300
Br676      Br  0.86789070  0.88948023  0.39783812    -0.00300
C677        C  0.51420539  0.12593841  0.43674931    -0.01500
C678        C  0.98354253  0.12129352  0.40079320     0.08200
C679        C  0.94349288  0.09086851  0.38893764    -0.01600
C680        C  0.93730940  0.06156076  0.41315273    -0.01600
C681        C  0.96685963  0.07043339  0.45094019     0.08400
C682        C  0.99697821  0.11755278  0.45740120    -0.01800
Br683      Br  0.47798888  0.19574105  0.45548662    -0.00300
Br684      Br  0.57168209  0.16486982  0.45635459    -0.00400
Br685      Br  0.88348437  0.01847627  0.38836742    -0.00300
Br686      Br  0.89620562  0.09224309  0.33932564    -0.00300
C687        C  0.96811607  0.07391445  0.05964297    -0.01500
C688        C  0.50764910  0.06732566  0.05835970     0.08200
C689        C  0.54706701  0.09508699  0.08969777    -0.01600
C690        C  0.54187371  0.12561193  0.11412389    -0.01600
C691        C  0.99909809  0.14624614  0.10419477     0.08400
C692        C  0.96150570  0.12464682  0.07319459    -0.01800
Br693      Br  0.90143143  0.14778464  0.06001838    -0.00300
Br694      Br  0.96274626  0.02499659  0.09097013    -0.00400
Br695      Br  0.59287339  0.13861412  0.16115944    -0.00300
Br696      Br  0.60968098  0.10350408  0.10302956    -0.00300
C697        C  0.65519551  0.60160071  0.24424794    -0.01500
C698        C  0.67626668  0.58962145  0.22557201     0.08200
C699        C  0.65419918  0.62608202  0.19522809    -0.01600
C700        C  0.60699961  0.63682386  0.17609262    -0.01600
C701        C  0.58461491  0.63508926  0.19320858     0.08400
C702        C  0.60792805  0.61242420  0.22655906    -0.01800
Br703      Br  0.57712098  0.60916515  0.25053987    -0.00300
Br704      Br  0.67749138  0.65858437  0.28071153    -0.00400
Br705      Br  0.57618291  0.66620537  0.12948051    -0.00300
Br706      Br  0.67316830  0.70393279  0.20020817    -0.00300
C707        C  0.58683549  0.43053211  0.21271927    -0.01500
C708        C  0.58551129  0.37159251  0.20861470     0.08200
C709        C  0.62367878  0.34448327  0.21330216    -0.01600
C710        C  0.66323591  0.37579791  0.22315852    -0.01600
C711        C  0.66521497  0.43778394  0.22369868     0.08400
C712        C  0.62130800  0.46246829  0.21332355    -0.01800
Br713      Br  0.58612091  0.51126884  0.17527894    -0.00300
Br714      Br  0.53740627  0.46749029  0.21250046    -0.00400
Br715      Br  0.71088670  0.32682169  0.23194586    -0.00300
Br716      Br  0.62095088  0.26298472  0.20488383    -0.00300
C717        C  0.89221666  0.82512758  0.46781852    -0.01500
C718        C  0.84990537  0.84402190  0.45972484     0.08200
C719        C  0.84133845  0.90227372  0.45724791    -0.01600
C720        C  0.87244018  0.94136296  0.45823433    -0.01600
C721        C  0.92042355  0.92684790  0.47362051     0.08400
C722        C  0.92681072  0.86473169  0.47522011    -0.01800
Br723      Br  0.97756303  0.82695001  0.47913798    -0.00300
Br724      Br  0.90040904  0.74361456  0.46449100    -0.00400
Br725      Br  0.83642553  0.00153181  0.42645624    -0.00300
Br726      Br  0.78540009  0.92845459  0.45207526    -0.00300
C727        C  0.55953695  0.87159933  0.04314486    -0.01500
C728        C  0.55497436  0.93086225  0.03346594     0.08200
C729        C  0.59813928  0.94843299  0.04033357    -0.01600
C730        C  0.62483545  0.91071826  0.03432404    -0.01600
C731        C  0.61937161  0.85186010  0.03443790     0.08400
C732        C  0.58178901  0.83246370  0.03400054    -0.01800
Br733      Br  0.57299043  0.75150262  0.03621498    -0.00300
Br734      Br  0.59237040  0.85286477  0.09196750    -0.00400
Br735      Br  0.67434450  0.93851839  0.03171364    -0.00300
Br736      Br  0.64227073  0.98947307  0.08116350    -0.00300
C737        C  0.74311007  0.66018020  0.18477507    -0.01500
C738        C  0.72406365  0.63959386  0.15055927     0.08200
C739        C  0.70769050  0.58359241  0.14396003    -0.01600
C740        C  0.70065418  0.55762758  0.16785826    -0.01600
C741        C  0.72915793  0.56890341  0.20509284     0.08400
C742        C  0.75627030  0.61973134  0.21111400    -0.01800
Br743      Br  0.81638378  0.61858353  0.21828324    -0.00300
Br744      Br  0.76379677  0.73851701  0.19901239    -0.00400
Br745      Br  0.64084375  0.52937318  0.14221376    -0.00300
Br746      Br  0.68936393  0.54285040  0.10137328    -0.00300
C747        C  0.79121863  0.62867845  0.35688759    -0.01500
C748        C  0.75937305  0.61328430  0.36355341     0.08200
C749        C  0.72994224  0.56906961  0.34488216    -0.01600
C750        C  0.72770189  0.54702729  0.31524739    -0.01600
C751        C  0.76323508  0.55691697  0.30884597     0.08400
C752        C  0.79985837  0.59227958  0.33715720    -0.01800
Br753      Br  0.86575950  0.59232207  0.35922906    -0.00300
Br754      Br  0.82374461  0.69986854  0.37530208    -0.00400
Br755      Br  0.67226846  0.50898677  0.28666086    -0.00300
Br756      Br  0.68804254  0.54675325  0.35756167    -0.00300
C757        C  0.80878822  0.62974881  0.28314541    -0.01500
C758        C  0.80907368  0.56750069  0.28151914     0.08200
C759        C  0.85387664  0.54692646  0.29192075    -0.01600
C760        C  0.88878800  0.58266407  0.29583653    -0.01600
C761        C  0.88722465  0.64132517  0.30001833     0.08400
C762        C  0.84732686  0.66454994  0.29444721    -0.01800
Br763      Br  0.84711256  0.74444786  0.30591241    -0.00300
Br764      Br  0.75908429  0.67383807  0.27476836    -0.00400
Br765      Br  0.94027062  0.55091117  0.29650855    -0.00300
Br766      Br  0.88326721  0.48331561  0.31895164    -0.00300
C767        C  0.86734319  0.35835767  0.32600155    -0.01500
C768        C  0.88672865  0.35541420  0.30673926     0.08200
C769        C  0.86162906  0.37680983  0.27301127    -0.01600
C770        C  0.81512568  0.39120293  0.25723593    -0.01600
C771        C  0.79740339  0.40743553  0.27792084     0.08400
C772        C  0.82056065  0.37152033  0.30862740    -0.01800
Br773      Br  0.80090774  0.29441217  0.30523014    -0.00300
Br774      Br  0.90134335  0.33173588  0.37337639    -0.00400
Br775      Br  0.78939439  0.33230323  0.22190064    -0.00300
Br776      Br  0.88951789  0.37942257  0.24696534    -0.00300
C777        C  0.84984109  0.10960249  0.47996662    -0.01500
C778        C  0.85026905  0.16479531  0.46987298     0.08200
C779        C  0.88557808  0.17998749  0.46675683    -0.01600
C780        C  0.90532742  0.13539066  0.45887912    -0.01600
C781        C  0.91652768  0.08077441  0.47650232     0.08400
C782        C  0.88692836  0.07205984  0.48904222    -0.01800
Br783      Br  0.88457840  0.01091322  0.51347449    -0.00300
Br784      Br  0.79883668  0.08870051  0.48312443    -0.00400
Br785      Br  0.86847377  0.14214766  0.40892906    -0.00300
Br786      Br  0.89071749  0.25832203  0.45656501    -0.00300
C787        C  0.77860638  0.44328640  0.33781556    -0.01500
C788        C  0.74780092  0.43249440  0.30062661     0.08200
C789        C  0.72012405  0.38249279  0.29528202    -0.01600
C790        C  0.73390381  0.34268045  0.32188873    -0.01600
C791        C  0.75390303  0.36452615  0.35581827     0.08400
C792        C  0.77221191  0.41922879  0.36243984    -0.01800
Br793      Br  0.79817828  0.45619670  0.40735274    -0.00300
Br794      Br  0.84002376  0.46590106  0.36164562    -0.00400
Br795      Br  0.71196359  0.26425106  0.30890617    -0.00300
Br796      Br  0.66061131  0.38327284  0.28953217    -0.00300
C797        C  0.57511489  0.18814081  0.03815517    -0.01500
C798        C  0.61681626  0.16858376  0.04490900     0.08200
C799        C  0.62065139  0.11154347  0.03828521    -0.01600
C800        C  0.58277023  0.07467593  0.02434515    -0.01600
C801        C  0.54369898  0.08771484  0.02537913     0.08400
C802        C  0.54007866  0.14894661  0.03038514    -0.01800
Br803      Br  0.48992418  0.18506274  0.02938248    -0.00300
Br804      Br  0.56741545  0.26914099  0.04221474    -0.00400
Br805      Br  0.58006282  0.03055183  0.98920896    -0.00300
Br806      Br  0.67649990  0.08653842  0.04287043    -0.00300
C807        C  0.74936469  0.43035103  0.16297201    -0.01500
C808        C  0.71984495  0.38656596  0.14363355     0.08200
C809        C  0.68776421  0.37003815  0.14985109    -0.01600
C810        C  0.67849759  0.40517583  0.16973682    -0.01600
C811        C  0.71379108  0.44251489  0.19744512     0.08400
C812        C  0.75014070  0.45278230  0.19194450    -0.01800
Br813      Br  0.80531205  0.49147284  0.22165030    -0.00300
Br814      Br  0.79369678  0.45093846  0.15239154    -0.00400
Br815      Br  0.61273808  0.40251035  0.14719538    -0.00300
Br816      Br  0.65574103  0.29853287  0.13042985    -0.00300
O817        O  0.71120875  0.36905732  0.58947901    -0.57400
C818        C  0.72586671  0.28680922  0.51279502     0.75200
O819        O  0.80232053  0.22300674  0.60687807    -0.58600
C820        C  0.72572050  0.35255783  0.61995790     0.75200
C821        C  0.65564850  0.20764084  0.55630088     0.77600
Cd822      Cd  0.73165900  0.27912514  0.57513343     1.37500
O823        O  0.72363932  0.33248884  0.52675984    -0.57400
O824        O  0.65058411  0.25422906  0.54108681    -0.56200
C825        C  0.82724663  0.26541013  0.61162473     0.77500
O826        O  0.69599183  0.19477619  0.58077489    -0.58600
O827        O  0.72724724  0.24004935  0.52655926    -0.57100
O828        O  0.74387663  0.30386301  0.62917750    -0.57000
O829        O  0.80785895  0.31304455  0.60036301    -0.56200
O830        O  0.74631307  0.35951588  0.90425168    -0.57400
C831        C  0.72780452  0.28581161  0.98240344     0.75200
O832        O  0.66385170  0.21622949  0.88696566    -0.58600
C833        C  0.74970090  0.33384627  0.88147320     0.75200
C834        C  0.80987038  0.20167326  0.95561412     0.77600
Cd835      Cd  0.73219938  0.27269336  0.92447970     1.37500
O836        O  0.73690078  0.32941446  0.97133139    -0.57400
O837        O  0.81243994  0.25213490  0.96656441    -0.56200
C838        C  0.63731141  0.25802041  0.88065258     0.77500
O839        O  0.77107705  0.18425441  0.93085651    -0.58600
O840        O  0.72199771  0.23887618  0.96687619    -0.57100
O841        O  0.74699318  0.28029420  0.88056376    -0.57000
O842        O  0.65492819  0.30652454  0.89181188    -0.56200
C843        C  0.75774549  0.45724920  0.77158519    -0.02100
C844        C  0.76494680  0.53186730  0.77572025    -0.02100
O845        O  0.73152694  0.67585794  0.53117583    -0.57400
C846        C  0.72596721  0.67316641  0.62420570     0.75200
O847        O  0.80803082  0.78865289  0.61121279    -0.58600
C848        C  0.73838095  0.71906048  0.51837137     0.75200
C849        C  0.65924454  0.81351541  0.54681775     0.77600
Cd850      Cd  0.73578191  0.73674331  0.57652191     1.37500
O851        O  0.70887189  0.65585401  0.59327583    -0.57400
O852        O  0.65533725  0.76352926  0.53495563    -0.56200
C853        C  0.83215122  0.74574614  0.61397648     0.77500
O854        O  0.69885094  0.82815463  0.57181038    -0.58600
O855        O  0.74615841  0.72044507  0.63182289    -0.57100
O856        O  0.74138334  0.76737226  0.53176709    -0.57000
O857        O  0.81177543  0.69915762  0.60102057    -0.56200
O858        O  0.74861417  0.67030862  0.97743938    -0.57400
C859        C  0.75319771  0.64856562  0.88666704     0.75200
O860        O  0.67098260  0.77443616  0.89307188    -0.58600
C861        C  0.74181690  0.71623373  0.98875373     0.75200
C862        C  0.81274282  0.80297281  0.94971738     0.77600
Cd863      Cd  0.74147885  0.72232919  0.92889049     1.37500
O864        O  0.76794358  0.63383389  0.91748505    -0.57400
O865        O  0.81943692  0.75791114  0.96666929    -0.56200
C866        C  0.64608888  0.73341201  0.89046088     0.77500
O867        O  0.77279394  0.81069276  0.92319658    -0.58600
O868        O  0.73337722  0.69609619  0.87624587    -0.57100
O869        O  0.73814662  0.76208257  0.97343573    -0.57000
O870        O  0.66538947  0.68686256  0.90442744    -0.56200
C871        C  0.71083973  0.46911060  0.72957887    -0.02100
C872        C  0.71808512  0.54304117  0.73344422    -0.02100
O873        O  0.98438584  0.19219035  0.71804215    -0.57400
C874        C  0.99245771  0.18298825  0.62747226     0.75200
O875        O  0.90083617  0.30351030  0.63410524    -0.58600
C876        C  0.97445443  0.23304180  0.73098945     0.75200
C877        C  0.54439834  0.33703435  0.69738432     0.77600
Cd878      Cd  0.97289848  0.25296822  0.66996414     1.37500
O879        O  0.00353591  0.16693423  0.65727467    -0.57400
O880        O  0.54769366  0.29129367  0.71272154    -0.56200
C881        C  0.87652607  0.26076003  0.62981065     0.77500
O882        O  0.00570064  0.34762741  0.67009051    -0.58600
O883        O  0.97348547  0.23122881  0.61783262    -0.57100
O884        O  0.96406620  0.28024992  0.71554802    -0.57000
O885        O  0.89674053  0.21396486  0.64242191    -0.56200
O886        O  0.98081792  0.18268044  0.77856073    -0.57400
C887        C  0.98883676  0.15721259  0.87687956     0.75200
O888        O  0.56319079  0.29062610  0.86156829    -0.58600
C889        C  0.97736162  0.22920467  0.76358540     0.75200
C890        C  0.92445415  0.31545425  0.81677009     0.77600
Cd891      Cd  0.49389860  0.23434283  0.83099726     1.37500
O892        O  0.97567706  0.14179237  0.84629731    -0.57400
O893        O  0.91596420  0.26654658  0.80271643    -0.56200
C894        C  0.58848213  0.25058798  0.86299087     0.77500
O895        O  0.96588029  0.32747638  0.83898348    -0.58600
O896        O  0.50485348  0.20696507  0.88570838    -0.57100
O897        O  0.47813157  0.27469680  0.77868408    -0.57000
O898        O  0.57000722  0.20317512  0.84990146    -0.56200
C899        C  0.95973611  0.04223520  0.98120914    -0.02100
C900        C  0.96200688  0.96794508  0.98012291    -0.02100
O901        O  0.01328951  0.83867166  0.65894462    -0.57400
C902        C  0.99016671  0.76593745  0.73609286     0.75200
O903        O  0.90545422  0.70604271  0.63495218    -0.58600
C904        C  0.99731387  0.82735166  0.62731787     0.75200
C905        C  0.54646265  0.67402514  0.68301280     0.77600
Cd906      Cd  0.97836035  0.75636235  0.66885848     1.37500
O907        O  0.99054916  0.81066898  0.72111763    -0.57400
O908        O  0.50502720  0.66151012  0.66104277    -0.56200
C909        C  0.88153538  0.74950915  0.63138505     0.77500
O910        O  0.05482688  0.72243739  0.69754254    -0.58600
O911        O  0.98637333  0.71925849  0.72084636    -0.57100
O912        O  0.97113798  0.78483098  0.61504754    -0.57000
O913        O  0.90218854  0.79617337  0.64353472    -0.56200
O914        O  0.98440703  0.84609861  0.85449546    -0.57400
C915        C  0.99381910  0.76599168  0.76947882     0.75200
O916        O  0.57172254  0.69937490  0.86939113    -0.58600
C917        C  0.49395742  0.82815512  0.88364242     0.75200
C918        C  0.92732005  0.67847001  0.81159990     0.77600
Cd919      Cd  0.50214739  0.75580278  0.83521314     1.37500
O920        O  0.99036452  0.81042947  0.78388361    -0.57400
O921        O  0.92263658  0.72747187  0.79891190    -0.56200
C922        C  0.59711454  0.73998306  0.87225986     0.77500
O923        O  0.96758226  0.66409876  0.83543534    -0.58600
O924        O  0.50005879  0.71948327  0.78500243    -0.57100
O925        O  0.50847295  0.77753692  0.89102496    -0.57000
O926        O  0.57841153  0.78701292  0.85884367    -0.56200
C927        C  0.50725245  0.04308147  0.52372497    -0.02100
C928        C  0.50920764  0.96897442  0.52388390    -0.02100
C929        C  0.97488933  0.88950252  0.54578398    -0.01500
C930        C  0.50048960  0.94135184  0.55290021     0.08200
C931        C  0.53073458  0.94890551  0.59079662    -0.01600
C932        C  0.52587628  0.91709496  0.61471376    -0.01600
C933        C  0.00640616  0.86276065  0.60500709     0.08400
C934        C  0.99015925  0.84622223  0.57068833    -0.01800
Br935      Br  0.97861195  0.76798736  0.55551221    -0.00300
Br936      Br  0.91632922  0.88970514  0.53988463    -0.00400
Br937      Br  0.55069785  0.94648241  0.66144781    -0.00300
Br938      Br  0.58920445  0.98153899  0.61677514    -0.00300
C939        C  0.50903184  0.93850349  0.94968457    -0.01500
C940        C  0.96717410  0.94133075  0.94823441     0.08200
C941        C  0.93125048  0.90938007  0.91636820    -0.01600
C942        C  0.94102359  0.88145896  0.89384957    -0.01600
C943        C  0.98516123  0.86329318  0.90654228     0.08400
C944        C  0.52007715  0.88802806  0.93819686    -0.01800
Br945      Br  0.58177343  0.87396902  0.95225571    -0.00300
Br946      Br  0.51006576  0.98583077  0.91560260    -0.00400
Br947      Br  0.89488532  0.87295566  0.84453188    -0.00300
Br948      Br  0.86789086  0.88947911  0.89783431    -0.00300
C949        C  0.51420242  0.12594314  0.93674717    -0.01500
C950        C  0.98354030  0.12129707  0.90079196     0.08200
C951        C  0.94349150  0.09087140  0.88893739    -0.01600
C952        C  0.93731046  0.06156149  0.91315290    -0.01600
C953        C  0.96686139  0.07043319  0.95094006     0.08400
C954        C  0.99698100  0.11755208  0.95740160    -0.01800
Br955      Br  0.47799491  0.19574272  0.95549356    -0.00300
Br956      Br  0.57167774  0.16487796  0.95635080    -0.00400
Br957      Br  0.88348547  0.01847817  0.88836911    -0.00300
Br958      Br  0.89620015  0.09225214  0.83932641    -0.00300
C959        C  0.96811625  0.07392034  0.55964450    -0.01500
C960        C  0.50764974  0.06733375  0.55836082     0.08200
C961        C  0.54706702  0.09510029  0.58969679    -0.01600
C962        C  0.54187405  0.12562960  0.61412189    -0.01600
C963        C  0.99909292  0.14626134  0.60419074     0.08400
C964        C  0.96150152  0.12465289  0.57319361    -0.01800
Br965      Br  0.90142674  0.14777406  0.56002508    -0.00300
Br966      Br  0.96274914  0.02500455  0.59097351    -0.00400
Br967      Br  0.59287668  0.13865457  0.66115327    -0.00300
Br968      Br  0.60968107  0.10351309  0.60302758    -0.00300
C969        C  0.65519087  0.60158649  0.74423898    -0.01500
C970        C  0.67626183  0.58961370  0.72556303     0.08200
C971        C  0.65418923  0.62606928  0.69521715    -0.01600
C972        C  0.60698944  0.63681010  0.67608425    -0.01600
C973        C  0.58460734  0.63507014  0.69320199     0.08400
C974        C  0.60792260  0.61239957  0.72655106    -0.01800
Br975      Br  0.57711862  0.60912942  0.75053398    -0.00300
Br976      Br  0.67747883  0.65858038  0.78069565    -0.00400
Br977      Br  0.57616824  0.66619396  0.62947248    -0.00300
Br978      Br  0.67316649  0.70391304  0.70018836    -0.00300
C979        C  0.58683845  0.43054145  0.71271800    -0.01500
C980        C  0.58551642  0.37160081  0.70861964     0.08200
C981        C  0.62368507  0.34448831  0.71331074    -0.01600
C982        C  0.66323942  0.37580265  0.72315899    -0.01600
C983        C  0.66521682  0.43778858  0.72369504     0.08400
C984        C  0.62130933  0.46247483  0.71331838    -0.01800
Br985      Br  0.58611243  0.51125406  0.67526185    -0.00300
Br986      Br  0.53740202  0.46750165  0.71248873    -0.00400
Br987      Br  0.71088952  0.32682644  0.73194132    -0.00300
Br988      Br  0.62096787  0.26298191  0.70492045    -0.00300
C989        C  0.89221143  0.82512701  0.96781642    -0.01500
C990        C  0.84990150  0.84402288  0.95972466     0.08200
C991        C  0.84133471  0.90227461  0.95724540    -0.01600
C992        C  0.87243633  0.94136226  0.95823004    -0.01600
C993        C  0.92041988  0.92684655  0.97361594     0.08400
C994        C  0.92680518  0.86472980  0.97521500    -0.01800
Br995      Br  0.97755343  0.82694458  0.97912868    -0.00300
Br996      Br  0.90040245  0.74361261  0.96449283    -0.00400
Br997      Br  0.83642051  0.00153068  0.92645210    -0.00300
Br998      Br  0.78539718  0.92845691  0.95207398    -0.00300
C999        C  0.55954383  0.87160211  0.54315794    -0.01500
C1000       C  0.55497726  0.93086206  0.53347177     0.08200
C1001       C  0.59814173  0.94843049  0.54033880    -0.01600
C1002       C  0.62483724  0.91071300  0.53432975    -0.01600
C1003       C  0.61937317  0.85185418  0.53444504     0.08400
C1004       C  0.58179492  0.83246092  0.53401533    -0.01800
Br1005     Br  0.57300119  0.75150202  0.53624132    -0.00300
Br1006     Br  0.59238469  0.85288467  0.59198357    -0.00400
Br1007     Br  0.67434762  0.93851246  0.53172107    -0.00300
Br1008     Br  0.64227041  0.98947000  0.58116973    -0.00300
C1009       C  0.74311952  0.66017944  0.68477210    -0.01500
C1010       C  0.72406917  0.63959446  0.65055535     0.08200
C1011       C  0.70769023  0.58359533  0.64395422    -0.01600
C1012       C  0.70065418  0.55763145  0.66785289    -0.01600
C1013       C  0.72915878  0.56890562  0.70508763     0.08400
C1014       C  0.75627424  0.61973111  0.71111013    -0.01800
Br1015     Br  0.81638736  0.61858477  0.71827801    -0.00300
Br1016     Br  0.76380992  0.73851551  0.69901293    -0.00400
Br1017     Br  0.64084818  0.52936189  0.64220993    -0.00300
Br1018     Br  0.68934724  0.54285885  0.60136143    -0.00300
C1019       C  0.79122143  0.62868378  0.85688606    -0.01500
C1020       C  0.75937255  0.61329401  0.86354948     0.08200
C1021       C  0.72993940  0.56908207  0.84487678    -0.01600
C1022       C  0.72770146  0.54703510  0.81524371    -0.01600
C1023       C  0.76323455  0.55692352  0.80884199     0.08400
C1024       C  0.79985882  0.59228540  0.83715362    -0.01800
Br1025     Br  0.86575970  0.59232555  0.85922339    -0.00300
Br1026     Br  0.82376034  0.69986372  0.87531223    -0.00400
Br1027     Br  0.67227227  0.50898435  0.78666084    -0.00300
Br1028     Br  0.68803408  0.54677456  0.85755306    -0.00300
C1029       C  0.80878403  0.62975628  0.78314049    -0.01500
C1030       C  0.80907032  0.56750799  0.78151306     0.08200
C1031       C  0.85387181  0.54693463  0.79191119    -0.01600
C1032       C  0.88877977  0.58267401  0.79582345    -0.01600
C1033       C  0.88721898  0.64133399  0.80001080     0.08400
C1034       C  0.84732342  0.66455713  0.79444468    -0.01800
Br1035     Br  0.84711541  0.74444859  0.80592431    -0.00300
Br1036     Br  0.75907815  0.67384528  0.77476129    -0.00400
Br1037     Br  0.94024976  0.55092432  0.79647747    -0.00300
Br1038     Br  0.88327276  0.48333556  0.81895267    -0.00300
C1039       C  0.86735110  0.35837561  0.82600035    -0.01500
C1040       C  0.88673670  0.35543413  0.80673831     0.08200
C1041       C  0.86163685  0.37682983  0.77301044    -0.01600
C1042       C  0.81513250  0.39121797  0.75723482    -0.01600
C1043       C  0.79740940  0.40744840  0.77791920     0.08400
C1044       C  0.82056825  0.37153537  0.80862614    -0.01800
Br1045     Br  0.80091611  0.29442820  0.80522909    -0.00300
Br1046     Br  0.90135246  0.33175300  0.87337494    -0.00400
Br1047     Br  0.78940151  0.33231947  0.72189923    -0.00300
Br1048     Br  0.88952535  0.37944385  0.74696434    -0.00300
C1049       C  0.84983795  0.10959761  0.97996065    -0.01500
C1050       C  0.85026688  0.16479199  0.96986919     0.08200
C1051       C  0.88557875  0.17998636  0.96675674    -0.01600
C1052       C  0.90532978  0.13539125  0.95887932    -0.01600
C1053       C  0.91652797  0.08077309  0.97650039     0.08400
C1054       C  0.88692696  0.07205682  0.98903838    -0.01800
Br1055     Br  0.88457799  0.01091123  0.01347154    -0.00300
Br1056     Br  0.79882955  0.08868885  0.98311163    -0.00400
Br1057     Br  0.86847961  0.14215382  0.90892955    -0.00300
Br1058     Br  0.89072098  0.25832220  0.95656848    -0.00300
C1059       C  0.77860536  0.44329261  0.83781207    -0.01500
C1060       C  0.74780299  0.43249836  0.80062331     0.08200
C1061       C  0.72012777  0.38249560  0.79527924    -0.01600
C1062       C  0.73390690  0.34268460  0.82188658    -0.01600
C1063       C  0.75390101  0.36453217  0.85581628     0.08400
C1064       C  0.77220704  0.41923817  0.86243534    -0.01800
Br1065     Br  0.79815485  0.45623072  0.90733910    -0.00300
Br1066     Br  0.84002365  0.46590664  0.86164461    -0.00400
Br1067     Br  0.71197505  0.26425235  0.80889955    -0.00300
Br1068     Br  0.66061687  0.38327139  0.78953381    -0.00300
C1069       C  0.57511228  0.18814304  0.53814810    -0.01500
C1070       C  0.61681563  0.16858514  0.54490597     0.08200
C1071       C  0.62065323  0.11154257  0.53828738    -0.01600
C1072       C  0.58277263  0.07467427  0.52434816    -0.01600
C1073       C  0.54369987  0.08771599  0.52537952     0.08400
C1074       C  0.54007758  0.14894884  0.53038140    -0.01800
Br1075     Br  0.48992313  0.18506628  0.52937844    -0.00300
Br1076     Br  0.56740674  0.26914523  0.54219598    -0.00400
Br1077     Br  0.58006666  0.03054684  0.48921358    -0.00300
Br1078     Br  0.67650387  0.08653442  0.54287752    -0.00300
C1079       C  0.74935654  0.43036350  0.66296035    -0.01500
C1080       C  0.71984081  0.38657403  0.64362465     0.08200
C1081       C  0.68776440  0.37003899  0.64984493    -0.01600
C1082       C  0.67849943  0.40517204  0.66973346    -0.01600
C1083       C  0.71379210  0.44251493  0.69744044     0.08400
C1084       C  0.75013792  0.45278781  0.69193622    -0.01800
Br1085     Br  0.80531102  0.49147634  0.72163982    -0.00300
Br1086     Br  0.79367150  0.45097531  0.65236689    -0.00400
Br1087     Br  0.61274112  0.40249566  0.64719542    -0.00300
Br1088     Br  0.65573724  0.29853700  0.63041510    -0.00300
loop_ 
_geom_bond_atom_site_label_1 
_geom_bond_atom_site_label_2 
_geom_bond_distance 
_geom_bond_site_symmetry_2 
_ccdc_geom_bond_type 
O1            C4   1.271       .  A
O1           Cd6   2.430       .  S
C2           O11   1.265       .  A
C2            O7   1.271       .  A
C2          C287   1.448   1_554  S
O3            C9   1.271       .  A
O3           Cd6   2.459       .  S
C4           O12   1.264       .  A
C4          C264   1.454       .  S
C5           O10   1.271       .  A
C5            O8   1.267       .  A
C5          C254   1.489       .  S
Cd6          O13   2.405       .  S
Cd6          O12   2.360       .  S
Cd6          O11   2.345       .  S
Cd6           O7   2.459       .  S
Cd6          O10   2.454       .  S
Cd6           O8   2.457       .  S
C9           O13   1.264       .  A
C9           C65   1.458       .  S
O14          C17   1.271       .  A
O14         Cd19   2.426       .  S
C15          O24   1.264       .  A
C15          O20   1.273       .  A
C15         C274   1.448       .  S
O16          C22   1.271       .  A
O16         Cd19   2.443       .  S
C17          O25   1.262       .  A
C17         C247   1.476       .  S
C18          O23   1.272       .  A
C18          O21   1.268       .  A
C18         C234   1.473       .  S
Cd19         O26   2.405       .  S
Cd19         O25   2.376       .  S
Cd19         O24   2.337       .  S
Cd19         O20   2.460       .  S
Cd19         O23   2.409       .  S
Cd19         O21   2.437       .  S
C22          O26   1.264       .  A
C22          C78   1.454       .  S
C27          C28   1.768       .  S
C27          C55   1.743       .  S
C27         C227   1.715       .  S
C27         C244   1.681       .  S
C28          C56   1.748       .  S
C28         C207   1.670       .  S
C28         C214   1.663       .  S
O29          C32   1.274       .  A
O29         Cd34   2.463       .  S
C30          O39   1.263       .  A
C30          O35   1.271       .  A
C30         C194   1.496       .  S
O31          C37   1.275       .  A
O31         Cd34   2.461       .  S
C32          O40   1.264       .  A
C32         C317   1.445   1_554  S
C33          O38   1.273       .  A
C33          O36   1.267       .  A
C33         C187   1.489       .  S
Cd34         O41   2.425       .  S
Cd34         O40   2.316       .  S
Cd34         O39   2.415       .  S
Cd34         O35   2.454       .  S
Cd34         O38   2.451       .  S
Cd34         O36   2.472       .  S
C37          O41   1.264       .  A
C37          C93   1.465       .  S
O42          C45   1.272       .  A
O42         Cd47   2.462       .  S
C43          O52   1.263       .  A
C43          O48   1.271       .  A
C43         C204   1.455       .  S
O44          C50   1.271       .  A
O44         Cd47   2.422       .  S
C45          O53   1.264       .  A
C45         C304   1.445       .  S
C46          O51   1.270       .  A
C46          O49   1.267       .  A
C46         C174   1.487       .  S
Cd47         O54   2.420       .  S
Cd47         O53   2.317       .  S
Cd47         O52   2.368       .  S
Cd47         O48   2.443       .  S
Cd47         O51   2.449       .  S
Cd47         O49   2.452       .  S
C50          O54   1.263       .  A
C50         C106   1.453       .  S
C55          C56   1.752       .  S
C55         C167   1.658       .  S
C55         C267   1.664       .  S
C56         C154   1.702       .  S
C56         C197   1.688       .  S
O57          C60   1.272       .  A
O57         Cd62   2.498       .  S
C58          O67   1.265       .  A
C58          O63   1.271       .  A
C58         C147   1.489       .  S
O59          C65   1.269       .  A
O59         Cd62   2.440       .  S
C60          O68   1.265       .  A
C60          C73   1.461       .  S
C61          O64   1.265       .  A
C61         O610   1.270       .  A
C61         C164   1.489       .  S
Cd62         O69   2.434       .  S
Cd62         O68   2.381       .  S
Cd62         O67   2.475       .  S
Cd62         O63   2.498       .  S
Cd62         O66   2.519       .  S
Cd62        O608   2.431       .  S
O64        Cd606   2.432   1_455  S
C65          O69   1.265       .  A
O66         C605   1.270       .  A
O70          C73   1.271       .  A
O70        Cd619   2.507       .  S
C71          O76   1.271       .  A
C71         O624   1.265       .  A
C71         C134   1.495       .  S
O72          C78   1.268       .  A
O72         Cd75   2.434   1_455  S
C73         O625   1.262       .  A
C74          O79   1.270       .  A
C74          O77   1.268       .  A
C74         C224   1.475       .  S
Cd75         O82   2.430   1_655  S
Cd75         O81   2.375       .  S
Cd75         O80   2.438   1_655  S
Cd75        O614   2.507       .  S
Cd75        O620   2.495       .  S
Cd75        O623   2.501       .  S
Cd75        O621   2.420       .  S
O76        Cd619   2.496       .  S
O77        Cd619   2.420       .  S
C78          O82   1.263       .  A
O79        Cd619   2.501       .  S
O80         C615   1.265   1_455  A
O81         C617   1.262       .  A
C83          C84   1.749   1_545  S
C83         C927   1.741       .  S
C83         C137   1.701       .  S
C83         C237   1.676       .  S
C84         C928   1.773       .  S
C84         C124   1.698       .  S
C84         C177   1.648       .  S
O85          C88   1.270       .  A
O85         Cd90   2.487       .  S
C86          O95   1.265       .  A
C86          O91   1.272       .  A
C86          C99   1.480       .  S
O87          C93   1.272       .  A
O87         Cd90   2.456       .  S
C88          O96   1.265       .  A
C88         C117   1.504       .  S
C89          O92   1.271       .  A
C89         O638   1.264       .  A
C89         C157   1.469       .  S
Cd90         O97   2.444       .  S
Cd90         O96   2.464       .  S
Cd90         O95   2.438       .  S
Cd90         O91   2.541       .  S
Cd90         O94   2.389       .  S
Cd90        O636   2.511       .  S
O92        Cd634   2.511   1_455  S
C93          O97   1.264       .  A
O94         C633   1.264       .  A
O98         C645   1.273       .  A
O98        Cd647   2.498       .  S
C99         O104   1.274       .  A
C99         O652   1.265       .  A
O100        C106   1.272       .  A
O100       Cd103   2.446       .  S
C101        O109   1.265   1_655  A
C101        O642   1.273       .  A
C101        C671   1.498       .  S
C102        O107   1.271       .  A
C102        O105   1.267       .  A
C102        C217   1.493       .  S
Cd103       O110   2.398       .  S
Cd103       O109   2.516       .  S
Cd103       O108   2.432       .  S
Cd103       O642   2.498   1_455  S
Cd103       O648   2.540   1_455  S
Cd103       O651   2.493   1_455  S
Cd103       O649   2.436   1_455  S
O104       Cd647   2.540       .  S
O105       Cd647   2.436       .  S
C106        O110   1.262       .  A
O107       Cd647   2.493       .  S
O108        C643   1.265   1_455  A
C111        C112   1.743   1_545  S
C111        C899   1.741   1_454  S
C111        C144   1.690       .  S
C111        C257   1.638       .  S
C112        C900   1.773   1_454  S
C112        C114   1.677       .  S
C112        C184   1.674       .  S
C113        C118   1.410       .  A
C113        C658   1.448       .  A
C113       Br120   1.932       .  S
C114        C115   1.474       .  A
C114        C657   1.448   1_455  A
C115        C116   1.433       .  A
C115       Br122   1.886       .  S
C116        C661   1.403       .  A
C116       Br121   1.950       .  S
C117        C118   1.409       .  A
C117        C660   1.403       .  A
C118       Br119   1.926       .  S
C123        C128   1.432       .  A
C123        C668   1.445   1_455  A
C123       Br130   1.961       .  S
C124        C125   1.506       .  A
C124        C667   1.445       .  A
C125        C126   1.421       .  A
C125       Br132   1.962       .  S
C126        C127   1.392       .  A
C126       Br131   1.945       .  S
C127        C645   1.498       .  S
C127        C672   1.413       .  A
C128        C671   1.413   1_455  A
C128       Br129   1.925       .  S
C133        C678   1.399   1_455  A
C133        C682   1.408   1_455  A
C133       Br140   1.939       .  S
C134        C135   1.402       .  A
C134        C677   1.399       .  A
C135        C136   1.442       .  A
C135       Br142   1.954       .  S
C136        C137   1.472       .  A
C136       Br141   1.884       .  S
C137        C138   1.454       .  A
C138        C677   1.408       .  A
C138       Br683   1.936       .  S
Br139       C682   1.936       .  S
C143        C148   1.418       .  A
C143        C688   1.439       .  A
C143       Br150   1.955       .  S
C144        C145   1.492       .  A
C144        C687   1.439   1_455  A
C145        C146   1.428       .  A
C145       Br152   1.952       .  S
C146        C691   1.398   1_455  A
C146       Br151   1.931       .  S
C147        C148   1.401       .  A
C147        C690   1.398       .  A
C148       Br149   1.930       .  S
C153        C154   1.446       .  A
C153        C158   1.416       .  A
C153       Br160   1.938       .  S
C154        C155   1.456       .  A
C155        C156   1.410       .  A
C155       Br162   1.923       .  S
C156        C157   1.399       .  A
C156       Br161   1.935       .  S
C157        C158   1.397       .  A
C158       Br159   1.944       .  S
C163        C164   1.394       .  A
C163        C168   1.425       .  A
C163       Br170   1.939       .  S
C164        C165   1.391       .  A
C165        C166   1.418       .  A
C165       Br172   1.943       .  S
C166        C167   1.459       .  A
C166       Br171   1.881       .  S
C167        C168   1.462       .  A
C168       Br169   1.887       .  S
C173        C174   1.394       .  A
C173        C178   1.425       .  A
C173       Br180   1.952       .  S
C174        C175   1.392       .  A
C175        C176   1.421       .  A
C175       Br182   1.949       .  S
C176        C177   1.468       .  A
C176       Br181   1.930   1_565  S
C177        C178   1.472       .  A
C178       Br179   1.911       .  S
C183        C184   1.449       .  A
C183        C188   1.411       .  A
C183       Br190   1.940       .  S
C184        C185   1.439       .  A
C185        C186   1.422       .  A
C185       Br192   1.911       .  S
C186        C187   1.400       .  A
C186       Br191   1.941       .  S
C187        C188   1.399       .  A
C188       Br189   1.945       .  S
C193        C194   1.416       .  A
C193        C198   1.415       .  A
C193       Br200   1.955       .  S
C194        C195   1.404       .  A
C195        C196   1.410       .  A
C195       Br202   1.944       .  S
C196        C197   1.459       .  A
C196       Br201   1.882       .  S
C197        C198   1.464       .  A
C198       Br199   1.961       .  S
C203        C204   1.376       .  A
C203        C208   1.395       .  A
C203       Br210   1.940       .  S
C204        C205   1.383       .  A
C205        C206   1.423       .  A
C205       Br212   1.951       .  S
C206        C207   1.464       .  A
C206       Br211   1.876       .  S
C207        C208   1.482       .  A
C208       Br209   1.957       .  S
C213        C214   1.465       .  A
C213        C218   1.421       .  A
C213       Br220   1.878       .  S
C214        C215   1.455       .  A
C215        C216   1.425       .  A
C215       Br222   1.859       .  S
C216        C217   1.395       .  A
C216       Br221   1.945       .  S
C217        C218   1.392       .  A
C218       Br219   1.947       .  S
C223        C224   1.396       .  A
C223        C228   1.413       .  A
C223       Br230   1.936       .  S
C224        C225   1.399       .  A
C225        C226   1.419       .  A
C225       Br232   1.939       .  S
C226        C227   1.453       .  A
C226       Br231   1.934       .  S
C227        C228   1.460       .  A
C228       Br229   1.921       .  S
C233        C234   1.388       .  A
C233        C238   1.431       .  A
C233       Br240   1.957       .  S
C234        C235   1.385       .  A
C235        C236   1.407       .  A
C235       Br242   1.942       .  S
C236        C237   1.460       .  A
C236       Br241   1.934       .  S
C237        C238   1.469       .  A
C238       Br239   1.872       .  S
C243        C244   1.460       .  A
C243        C248   1.407       .  A
C243       Br250   1.888       .  S
C244        C245   1.466       .  A
C245        C246   1.410       .  A
C245       Br252   1.969       .  S
C246        C247   1.410       .  A
C246       Br251   1.961       .  S
C247        C248   1.398       .  A
C248       Br249   1.944       .  S
C253        C254   1.400       .  A
C253        C258   1.426       .  A
C253       Br260   1.942       .  S
C254        C255   1.394       .  A
C255        C256   1.418       .  A
C255       Br262   1.950       .  S
C256        C257   1.439       .  A
C256       Br261   1.877   1_554  S
C257        C258   1.471       .  A
C258       Br259   1.936   1_455  S
C263        C264   1.383       .  A
C263        C268   1.423       .  A
C263       Br270   1.951       .  S
C264        C265   1.377       .  A
C265        C266   1.396       .  A
C265       Br272   1.946       .  S
C266        C267   1.480       .  A
C266       Br271   1.951       .  S
C267        C268   1.465       .  A
C268       Br269   1.884       .  S
O273        C276   1.271       .  A
O273       Cd278   2.429       .  S
C274        O283   1.265       .  A
C274        O279   1.271       .  A
O275        C281   1.271       .  A
O275       Cd278   2.459       .  S
C276        O284   1.264       .  A
C276        C536   1.454       .  S
C277        O282   1.271       .  A
C277        O280   1.267       .  A
C277        C526   1.489       .  S
Cd278       O285   2.405       .  S
Cd278       O284   2.360       .  S
Cd278       O283   2.345       .  S
Cd278       O279   2.459       .  S
Cd278       O282   2.454       .  S
Cd278       O280   2.457       .  S
C281        O285   1.264       .  A
C281        C337   1.458       .  S
O286        C289   1.271       .  A
O286       Cd291   2.426       .  S
C287        O296   1.264       .  A
C287        O292   1.273       .  A
O288        C294   1.271       .  A
O288       Cd291   2.443       .  S
C289        O297   1.262       .  A
C289        C519   1.476       .  S
C290        O295   1.272       .  A
C290        O293   1.268       .  A
C290        C506   1.473       .  S
Cd291       O298   2.405       .  S
Cd291       O297   2.376       .  S
Cd291       O296   2.337       .  S
Cd291       O292   2.460       .  S
Cd291       O295   2.409       .  S
Cd291       O293   2.437       .  S
C294        O298   1.264       .  A
C294        C350   1.454       .  S
C299        C300   1.768       .  S
C299        C327   1.743       .  S
C299        C499   1.715       .  S
C299        C516   1.681       .  S
C300        C328   1.748       .  S
C300        C479   1.670       .  S
C300        C486   1.663       .  S
O301        C304   1.274       .  A
O301       Cd306   2.463       .  S
C302        O311   1.263       .  A
C302        O307   1.271       .  A
C302        C466   1.496       .  S
O303        C309   1.275       .  A
O303       Cd306   2.461       .  S
C304        O312   1.264       .  A
C305        O310   1.273       .  A
C305        O308   1.267       .  A
C305        C459   1.489       .  S
Cd306       O313   2.425       .  S
Cd306       O312   2.316       .  S
Cd306       O311   2.415       .  S
Cd306       O307   2.453       .  S
Cd306       O310   2.451       .  S
Cd306       O308   2.472       .  S
C309        O313   1.264       .  A
C309        C365   1.465       .  S
O314        C317   1.272       .  A
O314       Cd319   2.462       .  S
C315        O324   1.263       .  A
C315        O320   1.271       .  A
C315        C476   1.455       .  S
O316        C322   1.271       .  A
O316       Cd319   2.422       .  S
C317        O325   1.264       .  A
C318        O323   1.270       .  A
C318        O321   1.267       .  A
C318        C446   1.487       .  S
Cd319       O326   2.420       .  S
Cd319       O325   2.317       .  S
Cd319       O324   2.368       .  S
Cd319       O320   2.443       .  S
Cd319       O323   2.449       .  S
Cd319       O321   2.453       .  S
C322        O326   1.263       .  A
C322        C378   1.453       .  S
C327        C328   1.752       .  S
C327        C439   1.658       .  S
C327        C539   1.664       .  S
C328        C426   1.702       .  S
C328        C469   1.688       .  S
O329        C332   1.272       .  A
O329       Cd334   2.498       .  S
C330        O339   1.265       .  A
C330        O335   1.271       .  A
C330        C419   1.489       .  S
O331        C337   1.269       .  A
O331       Cd334   2.440       .  S
C332        O340   1.265       .  A
C332        C345   1.461       .  S
C333        O882   1.270       .  A
C333        O336   1.265       .  A
C333        C436   1.489       .  S
Cd334       O341   2.434       .  S
Cd334       O340   2.381       .  S
Cd334       O339   2.475       .  S
Cd334       O335   2.498       .  S
Cd334       O338   2.519       .  S
Cd334       O880   2.432       .  S
O336       Cd878   2.432   1_455  S
C337        O341   1.265       .  A
O338        C877   1.270       .  A
O342        C345   1.271       .  A
O342       Cd891   2.507       .  S
C343        O896   1.265       .  A
C343        O348   1.271       .  A
C343        C406   1.495       .  S
O344        C350   1.268       .  A
O344       Cd347   2.434   1_455  S
C345        O897   1.262       .  A
C346        O351   1.270       .  A
C346        O349   1.268       .  A
C346        C496   1.475       .  S
Cd347       O886   2.507       .  S
Cd347       O354   2.430   1_655  S
Cd347       O353   2.375       .  S
Cd347       O352   2.438   1_655  S
Cd347       O892   2.495       .  S
Cd347       O895   2.501       .  S
Cd347       O893   2.420       .  S
O348       Cd891   2.496       .  S
O349       Cd891   2.420       .  S
C350        O354   1.263       .  A
O351       Cd891   2.501       .  S
O352        C887   1.265   1_455  A
O353        C889   1.262       .  A
C355        C356   1.749   1_545  S
C355        C655   1.741   1_556  S
C355        C409   1.701       .  S
C355        C509   1.676       .  S
C356        C656   1.773   1_556  S
C356        C396   1.698       .  S
C356        C449   1.648       .  S
O357        C360   1.270       .  A
O357       Cd362   2.487       .  S
C358        O367   1.265       .  A
C358        O363   1.272       .  A
C358        C371   1.480       .  S
O359        C365   1.272       .  A
O359       Cd362   2.456       .  S
C360        O368   1.265       .  A
C360        C389   1.504       .  S
C361        O910   1.264       .  A
C361        O364   1.271       .  A
C361        C429   1.469       .  S
Cd362       O369   2.444       .  S
Cd362       O368   2.464       .  S
Cd362       O367   2.438       .  S
Cd362       O363   2.541       .  S
Cd362       O366   2.389       .  S
Cd362       O908   2.511       .  S
O364       Cd906   2.511   1_455  S
C365        O369   1.264       .  A
O366        C905   1.264       .  A
O370        C917   1.273       .  A
O370       Cd919   2.498       .  S
C371        O924   1.265       .  A
C371        O376   1.274       .  A
O372        C378   1.272       .  A
O372       Cd375   2.446       .  S
C373        O914   1.273       .  A
C373        O381   1.265   1_655  A
C373        C943   1.498       .  S
C374        O379   1.271       .  A
C374        O377   1.267       .  A
C374        C489   1.493       .  S
Cd375       O914   2.498   1_455  S
Cd375       O382   2.398       .  S
Cd375       O381   2.516       .  S
Cd375       O380   2.432       .  S
Cd375       O920   2.540   1_455  S
Cd375       O923   2.493   1_455  S
Cd375       O921   2.436   1_455  S
O376       Cd919   2.540       .  S
O377       Cd919   2.436       .  S
C378        O382   1.262       .  A
O379       Cd919   2.493       .  S
O380        C915   1.265   1_455  A
C383        C627   1.741   1_455  S
C383        C384   1.743   1_545  S
C383        C416   1.690       .  S
C383        C529   1.638       .  S
C384        C628   1.773   1_455  S
C384        C386   1.677       .  S
C384        C456   1.674       .  S
C385        C930   1.448       .  A
C385        C390   1.410       .  A
C385       Br392   1.932       .  S
C386        C929   1.448   1_455  A
C386        C387   1.474       .  A
C387        C388   1.433       .  A
C387       Br394   1.886       .  S
C388        C933   1.403       .  A
C388       Br393   1.950       .  S
C389        C932   1.403       .  A
C389        C390   1.409       .  A
C390       Br391   1.926       .  S
C395        C940   1.445   1_455  A
C395        C400   1.432       .  A
C395       Br402   1.961       .  S
C396        C939   1.445       .  A
C396        C397   1.506       .  A
C397        C398   1.421       .  A
C397       Br404   1.962       .  S
C398        C399   1.392       .  A
C398       Br403   1.945       .  S
C399        C917   1.498       .  S
C399        C944   1.413       .  A
C400        C943   1.413   1_455  A
C400       Br401   1.925       .  S
C405        C950   1.399   1_455  A
C405        C954   1.408   1_455  A
C405       Br412   1.939       .  S
C406        C949   1.399       .  A
C406        C407   1.402       .  A
C407        C408   1.442       .  A
C407       Br414   1.954       .  S
C408        C409   1.472       .  A
C408       Br413   1.884       .  S
C409        C410   1.454       .  A
C410        C949   1.408       .  A
C410       Br955   1.936       .  S
Br411       C954   1.936       .  S
C415        C960   1.439       .  A
C415        C420   1.418       .  A
C415       Br422   1.955       .  S
C416        C959   1.439   1_455  A
C416        C417   1.492       .  A
C417        C418   1.428       .  A
C417       Br424   1.952       .  S
C418        C963   1.398   1_455  A
C418       Br423   1.931       .  S
C419        C962   1.398       .  A
C419        C420   1.401       .  A
C420       Br421   1.930       .  S
C425        C426   1.446       .  A
C425        C430   1.416       .  A
C425       Br432   1.938       .  S
C426        C427   1.456       .  A
C427        C428   1.410       .  A
C427       Br434   1.923       .  S
C428        C429   1.399       .  A
C428       Br433   1.935       .  S
C429        C430   1.397       .  A
C430       Br431   1.944       .  S
C435        C436   1.394       .  A
C435        C440   1.425       .  A
C435       Br442   1.939       .  S
C436        C437   1.391       .  A
C437        C438   1.418       .  A
C437       Br444   1.943       .  S
C438        C439   1.459       .  A
C438       Br443   1.881       .  S
C439        C440   1.462       .  A
C440       Br441   1.887       .  S
C445        C446   1.394       .  A
C445        C450   1.425       .  A
C445       Br452   1.952       .  S
C446        C447   1.392       .  A
C447        C448   1.421       .  A
C447       Br454   1.949       .  S
C448        C449   1.468       .  A
C448       Br453   1.930   1_565  S
C449        C450   1.472       .  A
C450       Br451   1.911       .  S
C455        C456   1.449       .  A
C455        C460   1.411       .  A
C455       Br462   1.940       .  S
C456        C457   1.439       .  A
C457        C458   1.422       .  A
C457       Br464   1.911       .  S
C458        C459   1.400       .  A
C458       Br463   1.941       .  S
C459        C460   1.399       .  A
C460       Br461   1.945       .  S
C465        C466   1.416       .  A
C465        C470   1.415       .  A
C465       Br472   1.955       .  S
C466        C467   1.404       .  A
C467        C468   1.410       .  A
C467       Br474   1.944       .  S
C468        C469   1.459       .  A
C468       Br473   1.882       .  S
C469        C470   1.464       .  A
C470       Br471   1.961       .  S
C475        C476   1.376       .  A
C475        C480   1.395       .  A
C475       Br482   1.941       .  S
C476        C477   1.383       .  A
C477        C478   1.423       .  A
C477       Br484   1.951       .  S
C478        C479   1.464       .  A
C478       Br483   1.876       .  S
C479        C480   1.482       .  A
C480       Br481   1.957       .  S
C485        C486   1.465       .  A
C485        C490   1.421       .  A
C485       Br492   1.878       .  S
C486        C487   1.455       .  A
C487        C488   1.425       .  A
C487       Br494   1.859       .  S
C488        C489   1.395       .  A
C488       Br493   1.945       .  S
C489        C490   1.392       .  A
C490       Br491   1.947       .  S
C495        C496   1.396       .  A
C495        C500   1.413       .  A
C495       Br502   1.936       .  S
C496        C497   1.399       .  A
C497        C498   1.419       .  A
C497       Br504   1.939       .  S
C498        C499   1.453       .  A
C498       Br503   1.934       .  S
C499        C500   1.460       .  A
C500       Br501   1.921       .  S
C505        C506   1.388       .  A
C505        C510   1.431       .  A
C505       Br512   1.957       .  S
C506        C507   1.385       .  A
C507        C508   1.407       .  A
C507       Br514   1.942       .  S
C508        C509   1.460       .  A
C508       Br513   1.934       .  S
C509        C510   1.469       .  A
C510       Br511   1.872   1_556  S
C515        C516   1.460       .  A
C515        C520   1.407       .  A
C515       Br522   1.888       .  S
C516        C517   1.466       .  A
C517        C518   1.410       .  A
C517       Br524   1.969       .  S
C518        C519   1.410       .  A
C518       Br523   1.961       .  S
C519        C520   1.398       .  A
C520       Br521   1.944       .  S
C525        C526   1.400       .  A
C525        C530   1.426       .  A
C525       Br532   1.942       .  S
C526        C527   1.394       .  A
C527        C528   1.418       .  A
C527       Br534   1.950       .  S
C528        C529   1.439       .  A
C528       Br533   1.877       .  S
C529        C530   1.471       .  A
C530       Br531   1.936   1_455  S
C535        C536   1.383       .  A
C535        C540   1.423       .  A
C535       Br542   1.951       .  S
C536        C537   1.377       .  A
C537        C538   1.396       .  A
C537       Br544   1.946       .  S
C538        C539   1.480       .  A
C538       Br543   1.951       .  S
C539        C540   1.465       .  A
C540       Br541   1.884       .  S
O545        C548   1.271       .  A
O545       Cd550   2.429       .  S
C546        O555   1.265       .  A
C546        O551   1.271       .  A
C546        C831   1.448   1_554  S
O547        C553   1.271       .  A
O547       Cd550   2.459       .  S
C548        O556   1.264       .  A
C548        C808   1.454       .  S
C549        O554   1.271       .  A
C549        O552   1.267       .  A
C549        C798   1.489       .  S
Cd550       O557   2.405       .  S
Cd550       O556   2.360       .  S
Cd550       O555   2.345       .  S
Cd550       O551   2.458       .  S
Cd550       O554   2.454       .  S
Cd550       O552   2.457       .  S
C553        O557   1.264       .  A
C553        C609   1.458       .  S
O558        C561   1.271       .  A
O558       Cd563   2.426       .  S
C559        O568   1.264       .  A
C559        O564   1.273       .  A
C559        C818   1.448       .  S
O560        C566   1.271       .  A
O560       Cd563   2.443       .  S
C561        O569   1.262       .  A
C561        C791   1.476       .  S
C562        O567   1.272       .  A
C562        O565   1.268       .  A
C562        C778   1.473       .  S
Cd563       O570   2.405       .  S
Cd563       O569   2.376       .  S
Cd563       O568   2.337       .  S
Cd563       O564   2.460       .  S
Cd563       O567   2.409       .  S
Cd563       O565   2.437       .  S
C566        O570   1.264       .  A
C566        C622   1.454       .  S
C571        C572   1.768       .  S
C571        C599   1.743       .  S
C571        C771   1.715       .  S
C571        C788   1.681       .  S
C572        C600   1.748       .  S
C572        C751   1.670       .  S
C572        C758   1.663       .  S
O573        C576   1.274       .  A
O573       Cd578   2.463       .  S
C574        O583   1.263       .  A
C574        O579   1.271       .  A
C574        C738   1.496       .  S
O575        C581   1.275       .  A
O575       Cd578   2.460       .  S
C576        O584   1.264       .  A
C576        C861   1.445   1_554  S
C577        O582   1.273       .  A
C577        O580   1.267       .  A
C577        C731   1.489       .  S
Cd578       O585   2.425       .  S
Cd578       O584   2.315       .  S
Cd578       O583   2.415       .  S
Cd578       O579   2.454       .  S
Cd578       O582   2.451       .  S
Cd578       O580   2.471       .  S
C581        O585   1.264       .  A
C581        C637   1.464       .  S
O586        C589   1.272       .  A
O586       Cd591   2.462       .  S
C587        O596   1.263       .  A
C587        O592   1.271       .  A
C587        C748   1.455       .  S
O588        C594   1.271       .  A
O588       Cd591   2.422       .  S
C589        O597   1.264       .  A
C589        C848   1.445       .  S
C590        O595   1.270       .  A
C590        O593   1.267       .  A
C590        C718   1.487       .  S
Cd591       O598   2.419       .  S
Cd591       O597   2.317       .  S
Cd591       O596   2.368       .  S
Cd591       O592   2.442       .  S
Cd591       O595   2.449       .  S
Cd591       O593   2.452       .  S
C594        O598   1.263       .  A
C594        C650   1.453       .  S
C599        C600   1.752       .  S
C599        C711   1.658       .  S
C599        C811   1.664       .  S
C600        C698   1.702       .  S
C600        C741   1.688       .  S
O601        C604   1.272       .  A
O601       Cd606   2.498       .  S
C602        O611   1.265       .  A
C602        O607   1.271   1_655  A
C602        C691   1.489       .  S
O603        C609   1.269       .  A
O603       Cd606   2.440       .  S
C604        O612   1.265       .  A
C604        C617   1.461       .  S
C605        O608   1.265       .  A
C605        C708   1.489       .  S
Cd606       O613   2.434       .  S
Cd606       O612   2.381       .  S
Cd606       O611   2.475       .  S
Cd606       O607   2.498   1_655  S
Cd606       O610   2.519   1_655  S
C609        O613   1.265       .  A
O614        C617   1.271       .  A
C615        O620   1.271       .  A
C615        C678   1.495       .  S
O616        C622   1.268       .  A
O616       Cd619   2.434       .  S
C618        O623   1.270       .  A
C618        O621   1.268       .  A
C618        C768   1.475       .  S
Cd619       O626   2.430       .  S
Cd619       O625   2.375       .  S
Cd619       O624   2.438       .  S
C622        O626   1.263       .  A
C627        C628   1.749   1_545  S
C627        C681   1.701       .  S
C627        C781   1.676       .  S
C628        C668   1.698       .  S
C628        C721   1.648       .  S
O629        C632   1.270   1_455  A
O629       Cd634   2.487   1_455  S
C630        O639   1.265       .  A
C630        O635   1.272       .  A
C630        C643   1.480       .  S
O631        C637   1.272       .  A
O631       Cd634   2.456       .  S
C632        O640   1.265       .  A
C632        C661   1.505   1_655  S
C633        O636   1.271       .  A
C633        C701   1.469       .  S
Cd634       O641   2.444       .  S
Cd634       O640   2.464       .  S
Cd634       O639   2.438       .  S
Cd634       O635   2.541       .  S
Cd634       O638   2.389   1_655  S
C637        O641   1.264       .  A
C643        O648   1.274       .  A
O644        C650   1.272       .  A
O644       Cd647   2.446       .  S
C645        O653   1.265       .  A
C646        O651   1.271       .  A
C646        O649   1.267       .  A
C646        C761   1.493       .  S
Cd647       O654   2.398       .  S
Cd647       O653   2.516       .  S
Cd647       O652   2.432       .  S
C650        O654   1.262       .  A
C655        C656   1.743   1_545  S
C655        C688   1.690       .  S
C655        C801   1.638       .  S
C656        C658   1.677       .  S
C656        C728   1.674       .  S
C657        C662   1.410       .  A
C657       Br664   1.932       .  S
C658        C659   1.474       .  A
C659        C660   1.433       .  A
C659       Br666   1.886       .  S
C660       Br665   1.950       .  S
C661        C662   1.409   1_455  A
C662       Br663   1.926       .  S
C667        C672   1.432       .  A
C667       Br674   1.961       .  S
C668        C669   1.506       .  A
C669        C670   1.421       .  A
C669       Br676   1.962       .  S
C670        C671   1.392       .  A
C670       Br675   1.945       .  S
C672       Br673   1.925       .  S
C677       Br684   1.939       .  S
C678        C679   1.402       .  A
C679        C680   1.442       .  A
C679       Br686   1.954       .  S
C680        C681   1.472       .  A
C680       Br685   1.884       .  S
C681        C682   1.454       .  A
C687        C692   1.418       .  A
C687       Br694   1.955       .  S
C688        C689   1.492       .  A
C689        C690   1.428       .  A
C689       Br696   1.952       .  S
C690       Br695   1.931       .  S
C691        C692   1.401       .  A
C692       Br693   1.930       .  S
C697        C698   1.446       .  A
C697        C702   1.416       .  A
C697       Br704   1.938       .  S
C698        C699   1.456       .  A
C699        C700   1.410       .  A
C699       Br706   1.922       .  S
C700        C701   1.399       .  A
C700       Br705   1.935       .  S
C701        C702   1.397       .  A
C702       Br703   1.944       .  S
C707        C708   1.394       .  A
C707        C712   1.425       .  A
C707       Br714   1.939       .  S
C708        C709   1.391       .  A
C709        C710   1.418       .  A
C709       Br716   1.943       .  S
C710        C711   1.459       .  A
C710       Br715   1.882       .  S
C711        C712   1.462       .  A
C712       Br713   1.887       .  S
C717        C718   1.394       .  A
C717        C722   1.425       .  A
C717       Br724   1.952       .  S
C718        C719   1.392       .  A
C719        C720   1.421       .  A
C719       Br726   1.949       .  S
C720        C721   1.468       .  A
C720       Br725   1.930   1_565  S
C721        C722   1.472       .  A
C722       Br723   1.911       .  S
C727        C728   1.449       .  A
C727        C732   1.411       .  A
C727       Br734   1.940       .  S
C728        C729   1.439       .  A
C729        C730   1.422       .  A
C729       Br736   1.911       .  S
C730        C731   1.400       .  A
C730       Br735   1.941       .  S
C731        C732   1.399       .  A
C732       Br733   1.945       .  S
C737        C738   1.416       .  A
C737        C742   1.415       .  A
C737       Br744   1.955       .  S
C738        C739   1.404       .  A
C739        C740   1.410       .  A
C739       Br746   1.944       .  S
C740        C741   1.459       .  A
C740       Br745   1.883       .  S
C741        C742   1.464       .  A
C742       Br743   1.961       .  S
C747        C748   1.376       .  A
C747        C752   1.395       .  A
C747       Br754   1.940       .  S
C748        C749   1.383       .  A
C749        C750   1.423       .  A
C749       Br756   1.951       .  S
C750        C751   1.464       .  A
C750       Br755   1.876       .  S
C751        C752   1.482       .  A
C752       Br753   1.957       .  S
C757        C758   1.465       .  A
C757        C762   1.421       .  A
C757       Br764   1.878       .  S
C758        C759   1.455       .  A
C759        C760   1.425       .  A
C759       Br766   1.859       .  S
C760        C761   1.395       .  A
C760       Br765   1.945       .  S
C761        C762   1.392       .  A
C762       Br763   1.947       .  S
C767        C768   1.396       .  A
C767        C772   1.413       .  A
C767       Br774   1.936       .  S
C768        C769   1.399       .  A
C769        C770   1.419       .  A
C769       Br776   1.939       .  S
C770        C771   1.453       .  A
C770       Br775   1.934       .  S
C771        C772   1.460       .  A
C772       Br773   1.921       .  S
C777        C778   1.388       .  A
C777        C782   1.431       .  A
C777       Br784   1.957       .  S
C778        C779   1.385       .  A
C779        C780   1.407       .  A
C779       Br786   1.942       .  S
C780        C781   1.460       .  A
C780       Br785   1.934       .  S
C781        C782   1.469       .  A
C782       Br783   1.872       .  S
C787        C788   1.460       .  A
C787        C792   1.407       .  A
C787       Br794   1.888       .  S
C788        C789   1.466       .  A
C789        C790   1.410       .  A
C789       Br796   1.969       .  S
C790        C791   1.411       .  A
C790       Br795   1.961       .  S
C791        C792   1.398       .  A
C792       Br793   1.944       .  S
C797        C798   1.400       .  A
C797        C802   1.426       .  A
C797       Br804   1.942       .  S
C798        C799   1.394       .  A
C799        C800   1.418       .  A
C799       Br806   1.950       .  S
C800        C801   1.438       .  A
C800       Br805   1.877   1_554  S
C801        C802   1.471       .  A
C802       Br803   1.936       .  S
C807        C808   1.383       .  A
C807        C812   1.423       .  A
C807       Br814   1.951       .  S
C808        C809   1.377       .  A
C809        C810   1.396       .  A
C809       Br816   1.946       .  S
C810        C811   1.480       .  A
C810       Br815   1.951       .  S
C811        C812   1.465       .  A
C812       Br813   1.884       .  S
O817        C820   1.271       .  A
O817       Cd822   2.429       .  S
C818        O827   1.265       .  A
C818        O823   1.271       .  A
O819        C825   1.271       .  A
O819       Cd822   2.459       .  S
C820        O828   1.264       .  A
C820       C1080   1.454       .  S
C821        O826   1.271       .  A
C821        O824   1.267       .  A
C821       C1070   1.489       .  S
Cd822       O829   2.405       .  S
Cd822       O828   2.360       .  S
Cd822       O827   2.345       .  S
Cd822       O823   2.458       .  S
Cd822       O826   2.454       .  S
Cd822       O824   2.457       .  S
C825        O829   1.264       .  A
C825        C881   1.458       .  S
O830        C833   1.271       .  A
O830       Cd835   2.426       .  S
C831        O840   1.264       .  A
C831        O836   1.273       .  A
O832        C838   1.271       .  A
O832       Cd835   2.443       .  S
C833        O841   1.262       .  A
C833       C1063   1.476       .  S
C834        O839   1.272       .  A
C834        O837   1.268       .  A
C834       C1050   1.473       .  S
Cd835       O842   2.405       .  S
Cd835       O841   2.376       .  S
Cd835       O840   2.337       .  S
Cd835       O836   2.460       .  S
Cd835       O839   2.409       .  S
Cd835       O837   2.437       .  S
C838        O842   1.264       .  A
C838        C894   1.454       .  S
C843        C844   1.768       .  S
C843        C871   1.743       .  S
C843       C1043   1.715       .  S
C843       C1060   1.681       .  S
C844        C872   1.748       .  S
C844       C1023   1.670       .  S
C844       C1030   1.663       .  S
O845        C848   1.274       .  A
O845       Cd850   2.463       .  S
C846        O855   1.263       .  A
C846        O851   1.271       .  A
C846       C1010   1.496       .  S
O847        C853   1.275       .  A
O847       Cd850   2.460       .  S
C848        O856   1.264       .  A
C849        O854   1.273       .  A
C849        O852   1.267       .  A
C849       C1003   1.489       .  S
Cd850       O857   2.425       .  S
Cd850       O856   2.315       .  S
Cd850       O855   2.415       .  S
Cd850       O851   2.454       .  S
Cd850       O854   2.451       .  S
Cd850       O852   2.471       .  S
C853        O857   1.264       .  A
C853        C909   1.464       .  S
O858        C861   1.272       .  A
O858       Cd863   2.462       .  S
C859        O868   1.263       .  A
C859        O864   1.271       .  A
C859       C1020   1.455       .  S
O860        C866   1.271       .  A
O860       Cd863   2.422       .  S
C861        O869   1.264       .  A
C862        O867   1.270       .  A
C862        O865   1.267       .  A
C862        C990   1.487       .  S
Cd863       O870   2.419       .  S
Cd863       O869   2.317       .  S
Cd863       O868   2.368       .  S
Cd863       O864   2.442       .  S
Cd863       O867   2.449       .  S
Cd863       O865   2.452       .  S
C866        O870   1.263       .  A
C866        C922   1.453       .  S
C871        C872   1.752       .  S
C871        C983   1.658       .  S
C871       C1083   1.664       .  S
C872        C970   1.702       .  S
C872       C1013   1.688       .  S
O873        C876   1.272       .  A
O873       Cd878   2.498       .  S
C874        O883   1.265       .  A
C874        O879   1.271   1_655  A
C874        C963   1.489       .  S
O875        C881   1.269       .  A
O875       Cd878   2.440       .  S
C876        O884   1.265       .  A
C876        C889   1.461       .  S
C877        O880   1.265       .  A
C877        C980   1.489       .  S
Cd878       O885   2.434       .  S
Cd878       O884   2.381       .  S
Cd878       O883   2.475       .  S
Cd878       O879   2.498   1_655  S
Cd878       O882   2.519   1_655  S
C881        O885   1.265       .  A
O886        C889   1.271       .  A
C887        O892   1.271       .  A
C887        C950   1.495       .  S
O888        C894   1.268       .  A
O888       Cd891   2.434       .  S
C890        O895   1.270       .  A
C890        O893   1.268       .  A
C890       C1040   1.475       .  S
Cd891       O898   2.430       .  S
Cd891       O897   2.375       .  S
Cd891       O896   2.438       .  S
C894        O898   1.263       .  A
C899        C900   1.749   1_545  S
C899        C953   1.701       .  S
C899       C1053   1.676       .  S
C900        C940   1.698       .  S
C900        C993   1.648       .  S
O901        C904   1.270   1_455  A
O901       Cd906   2.487   1_455  S
C902        O911   1.265       .  A
C902        O907   1.272       .  A
C902        C915   1.480       .  S
O903        C909   1.272       .  A
O903       Cd906   2.456       .  S
C904        O912   1.265       .  A
C904        C933   1.505   1_655  S
C905        O908   1.271       .  A
C905        C973   1.469       .  S
Cd906       O913   2.444       .  S
Cd906       O912   2.464       .  S
Cd906       O911   2.438       .  S
Cd906       O907   2.541       .  S
Cd906       O910   2.388   1_655  S
C909        O913   1.264       .  A
C915        O920   1.274       .  A
O916        C922   1.272       .  A
O916       Cd919   2.446       .  S
C917        O925   1.265       .  A
C918        O923   1.271       .  A
C918        O921   1.267       .  A
C918       C1033   1.493       .  S
Cd919       O926   2.398       .  S
Cd919       O925   2.516       .  S
Cd919       O924   2.432       .  S
C922        O926   1.262       .  A
C927        C928   1.743   1_545  S
C927        C960   1.690       .  S
C927       C1073   1.638       .  S
C928        C930   1.677       .  S
C928       C1000   1.674       .  S
C929        C934   1.410       .  A
C929       Br936   1.932       .  S
C930        C931   1.474       .  A
C931        C932   1.433       .  A
C931       Br938   1.886       .  S
C932       Br937   1.950       .  S
C933        C934   1.409   1_455  A
C934       Br935   1.926       .  S
C939        C944   1.432       .  A
C939       Br946   1.961       .  S
C940        C941   1.506       .  A
C941        C942   1.421       .  A
C941       Br948   1.962       .  S
C942        C943   1.392       .  A
C942       Br947   1.945       .  S
C944       Br945   1.925       .  S
C949       Br956   1.939       .  S
C950        C951   1.402       .  A
C951        C952   1.442       .  A
C951       Br958   1.954       .  S
C952        C953   1.472       .  A
C952       Br957   1.884       .  S
C953        C954   1.454       .  A
C959        C964   1.418       .  A
C959       Br966   1.955       .  S
C960        C961   1.492       .  A
C961        C962   1.428       .  A
C961       Br968   1.952       .  S
C962       Br967   1.931       .  S
C963        C964   1.401       .  A
C964       Br965   1.930       .  S
C969        C970   1.446       .  A
C969        C974   1.416       .  A
C969       Br976   1.938       .  S
C970        C971   1.456       .  A
C971        C972   1.410       .  A
C971       Br978   1.922       .  S
C972        C973   1.399       .  A
C972       Br977   1.935       .  S
C973        C974   1.397       .  A
C974       Br975   1.944       .  S
C979        C980   1.394       .  A
C979        C984   1.425       .  A
C979       Br986   1.939       .  S
C980        C981   1.391       .  A
C981        C982   1.418       .  A
C981       Br988   1.943       .  S
C982        C983   1.459       .  A
C982       Br987   1.882       .  S
C983        C984   1.462       .  A
C984       Br985   1.887       .  S
C989        C990   1.394       .  A
C989        C994   1.425       .  A
C989       Br996   1.952       .  S
C990        C991   1.392       .  A
C991        C992   1.421       .  A
C991       Br998   1.949       .  S
C992        C993   1.468       .  A
C992       Br997   1.930   1_565  S
C993        C994   1.472       .  A
C994       Br995   1.911       .  S
C999       C1000   1.449       .  A
C999       C1004   1.411       .  A
C999      Br1006   1.940       .  S
C1000      C1001   1.439       .  A
C1001      C1002   1.422       .  A
C1001     Br1008   1.911       .  S
C1002      C1003   1.400       .  A
C1002     Br1007   1.941       .  S
C1003      C1004   1.399       .  A
C1004     Br1005   1.945       .  S
C1009      C1010   1.416       .  A
C1009      C1014   1.415       .  A
C1009     Br1016   1.955       .  S
C1010      C1011   1.404       .  A
C1011      C1012   1.410       .  A
C1011     Br1018   1.944       .  S
C1012      C1013   1.459       .  A
C1012     Br1017   1.883       .  S
C1013      C1014   1.464       .  A
C1014     Br1015   1.961       .  S
C1019      C1020   1.376       .  A
C1019      C1024   1.395       .  A
C1019     Br1026   1.940       .  S
C1020      C1021   1.383       .  A
C1021      C1022   1.423       .  A
C1021     Br1028   1.951       .  S
C1022      C1023   1.464       .  A
C1022     Br1027   1.876       .  S
C1023      C1024   1.482       .  A
C1024     Br1025   1.957       .  S
C1029      C1030   1.465       .  A
C1029      C1034   1.421       .  A
C1029     Br1036   1.878       .  S
C1030      C1031   1.455       .  A
C1031      C1032   1.425       .  A
C1031     Br1038   1.859       .  S
C1032      C1033   1.395       .  A
C1032     Br1037   1.945       .  S
C1033      C1034   1.392       .  A
C1034     Br1035   1.947       .  S
C1039      C1040   1.396       .  A
C1039      C1044   1.413       .  A
C1039     Br1046   1.936       .  S
C1040      C1041   1.399       .  A
C1041      C1042   1.419       .  A
C1041     Br1048   1.939       .  S
C1042      C1043   1.453       .  A
C1042     Br1047   1.934       .  S
C1043      C1044   1.460       .  A
C1044     Br1045   1.921       .  S
C1049      C1050   1.388       .  A
C1049      C1054   1.431       .  A
C1049     Br1056   1.957       .  S
C1050      C1051   1.385       .  A
C1051      C1052   1.407       .  A
C1051     Br1058   1.942       .  S
C1052      C1053   1.460       .  A
C1052     Br1057   1.934       .  S
C1053      C1054   1.469       .  A
C1054     Br1055   1.872   1_556  S
C1059      C1060   1.460       .  A
C1059      C1064   1.407       .  A
C1059     Br1066   1.888       .  S
C1060      C1061   1.466       .  A
C1061      C1062   1.410       .  A
C1061     Br1068   1.969       .  S
C1062      C1063   1.411       .  A
C1062     Br1067   1.961       .  S
C1063      C1064   1.398       .  A
C1064     Br1065   1.944       .  S
C1069      C1070   1.400       .  A
C1069      C1074   1.426       .  A
C1069     Br1076   1.942       .  S
C1070      C1071   1.394       .  A
C1071      C1072   1.418       .  A
C1071     Br1078   1.950       .  S
C1072      C1073   1.438       .  A
C1072     Br1077   1.877       .  S
C1073      C1074   1.471       .  A
C1074     Br1075   1.936       .  S
C1079      C1080   1.383       .  A
C1079      C1084   1.423       .  A
C1079     Br1086   1.951       .  S
C1080      C1081   1.377       .  A
C1081      C1082   1.396       .  A
C1081     Br1088   1.946       .  S
C1082      C1083   1.480       .  A
C1082     Br1087   1.951       .  S
C1083      C1084   1.465       .  A
C1084     Br1085   1.884       .  S
