geometry optimzed in LAMMPS
_audit_creation_date              2020-12-01 
_audit_creation_method            'lammps2cif' 
_symmetry_space_group_name_H-M    'P1' 
_symmetry_Int_Tables_number       1 
_symmetry_cell_setting            triclinic 
loop_ 
_symmetry_equiv_pos_as_xyz 
  x,y,z 
_cell_length_a                    35.97782794 
_cell_length_b                    35.84940553968517 
_cell_length_c                    25.977413399422257 
_cell_angle_alpha                 90.05782334725964 
_cell_angle_beta                  90.00233270858693 
_cell_angle_gamma                 120.20408939443882 
loop_ 
_atom_site_label 
_atom_site_type_symbol 
_atom_site_fract_x 
_atom_site_fract_y 
_atom_site_fract_z 
_atom_site_charge 
C1          C  0.33647329  0.16693311  0.08350180     0.30300
C2          C  0.33462010  0.16660269  0.97738460     0.30300
C3          C  0.36128823  0.14749554  0.05648183    -0.05900
C4          C  0.29168335  0.14318595  0.05797949    -0.06700
C5          C  0.35728610  0.21186075  0.05707664    -0.06600
C6          C  0.35916350  0.14614315  0.00266589    -0.05900
C7          C  0.29117174  0.14136043  0.00444422    -0.06700
C8          C  0.35522325  0.21080448  0.00338937    -0.06600
C9          C  0.37859826  0.12330831  0.98671321    -0.32000
N10         N  0.39495115  0.11375262  0.02818693     0.14500
C11         C  0.38522661  0.12867914  0.07104404    -0.32000
H12         H  0.39405665  0.12512413  0.10974745     0.16500
C13         C  0.24913313  0.11675605  0.98944197    -0.31000
N14         N  0.22390032  0.10672546  0.03161313     0.13200
C15         C  0.24921339  0.12264628  0.07399722    -0.31000
C16         C  0.37576753  0.25240386  0.98567755    -0.31200
N17         N  0.39140144  0.27914168  0.02658689     0.13700
H18         H  0.38038624  0.26256512  0.94585019     0.16400
C19         C  0.38186898  0.25526708  0.07024632    -0.31300
H20         H  0.39331744  0.26881562  0.10805093     0.16400
H21         H  0.23768557  0.11965735  0.11310622     0.16400
H22         H  0.37950771  0.11252323  0.94806504     0.16500
H23         H  0.23732683  0.10832724  0.95038031     0.16400
C24         C  0.33011931  0.16467598  0.47744012     0.30300
C25         C  0.32938330  0.16706599  0.58347425     0.30300
C26         C  0.35338954  0.14519288  0.50553485    -0.05900
C27         C  0.34831273  0.20945845  0.50196676    -0.06700
C28         C  0.28504914  0.14068097  0.50300239    -0.06600
C29         C  0.35379282  0.14668790  0.55885832    -0.05900
C30         C  0.34753725  0.21097506  0.55561498    -0.06700
C31         C  0.28436909  0.14122145  0.55714104    -0.06600
C32         C  0.37660910  0.12728845  0.57550774    -0.32000
N33         N  0.38899755  0.11400951  0.53324548     0.14500
C34         C  0.37465159  0.12436655  0.49060177    -0.32000
H35         H  0.37984166  0.11760457  0.45145359     0.16500
C36         C  0.36274303  0.25372283  0.56884402    -0.31000
N37         N  0.37476156  0.27758509  0.52515464     0.13200
C38         C  0.36476412  0.25091171  0.48424536    -0.31000
C39         C  0.24122488  0.12075401  0.57146022    -0.31200
N40         N  0.21673476  0.10819726  0.52825042     0.13700
H41         H  0.22822269  0.11676358  0.60987509     0.16400
C42         C  0.24285366  0.12162384  0.48673524    -0.31300
H43         H  0.23124798  0.11860478  0.44770418     0.16400
H44         H  0.36939105  0.26126378  0.44445192     0.16400
H45         H  0.38320902  0.12275628  0.61495397     0.16500
H46         H  0.36585182  0.26676709  0.60717705     0.16400
C47         C  0.17032696  0.33471000  0.02235385     0.30300
C48         C  0.16985893  0.33384399  0.91614885     0.30300
C49         C  0.14731904  0.35565247  0.99609309    -0.05900
C50         C  0.21491575  0.35973602  0.99606014    -0.06700
C51         C  0.15090709  0.29051778  0.99643668    -0.06600
C52         C  0.14696489  0.35534433  0.94249185    -0.05900
C53         C  0.21505238  0.35741559  0.94219756    -0.06700
C54         C  0.15019753  0.28940962  0.94278544    -0.06600
C55         C  0.12653071  0.37745241  0.92694786    -0.32000
N56         N  0.11446032  0.39035811  0.96978631     0.14500
C57         C  0.12797131  0.37833362  0.01184674    -0.32000
H58         H  0.12458045  0.38639350  0.05107588     0.16500
C59         C  0.25793356  0.37563536  0.92765548    -0.31000
N60         N  0.28285337  0.39297168  0.96991228     0.13200
C61         C  0.25719295  0.38470595  0.01131100    -0.31000
C62         C  0.13095352  0.24624945  0.92903108    -0.31200
N63         N  0.11964782  0.22228530  0.97273590     0.13700
H64         H  0.12505827  0.23306426  0.89048887     0.16400
C65         C  0.13227386  0.24892201  0.01390827    -0.31300
H66         H  0.12648505  0.23858170  0.05366835     0.16400
H67         H  0.26923269  0.39587505  0.04971721     0.16400
H68         H  0.12101378  0.38374650  0.88777845     0.16500
H69         H  0.27040203  0.37582443  0.88970349     0.16400
C70         C  0.16359008  0.33467358  0.41651893     0.30300
C71         C  0.16377121  0.33662496  0.52262333     0.30300
C72         C  0.13832714  0.35487081  0.44193017    -0.05900
C73         C  0.14223550  0.29014579  0.44376880    -0.06700
C74         C  0.20768298  0.35985508  0.44283591    -0.06600
C75         C  0.13874995  0.35543606  0.49592539    -0.05900
C76         C  0.14226014  0.29139160  0.49763166    -0.06700
C77         C  0.20736387  0.35956654  0.49618032    -0.06600
C78         C  0.11290798  0.37113274  0.51205782    -0.32000
N79         N  0.09798488  0.38188917  0.47034198     0.14500
C80         C  0.11169190  0.37089201  0.42729471    -0.32000
H81         H  0.10229123  0.37404494  0.38877519     0.16500
C82         C  0.11885386  0.24930678  0.51440640    -0.31000
N83         N  0.10694872  0.22271318  0.47319938     0.13200
C84         C  0.11980261  0.24689725  0.42973055    -0.31000
C85         C  0.24912924  0.38131137  0.51270290    -0.31200
N86         N  0.27491879  0.39579399  0.47092670     0.13700
H87         H  0.26010725  0.38668179  0.55227602     0.16400
C88         C  0.25031632  0.38332386  0.42775901    -0.31300
H89         H  0.26248599  0.38982902  0.38872881     0.16400
H90         H  0.11278966  0.23389689  0.39106047     0.16400
H91         H  0.10515641  0.37446873  0.55141332     0.16500
H92         H  0.11047773  0.23821118  0.55365709     0.16400
O93         O  0.05725365  0.47956414  0.03443773    -0.88100
C94         C  0.07217441  0.06561711  0.92300051     0.87900
Mg95       Mg  0.00861823  0.41328948  0.03174195     1.58100
O96         O  0.02450833  0.07541736  0.03653937    -0.87800
O97         O  0.07623296  0.03397042  0.08694751    -0.75100
C98         C  0.32858947  0.41320652  0.97355373     0.93000
O99         O  0.03906098  0.46256054  0.91244538    -0.75000
O100        O  0.34663196  0.39121618  0.96381646    -0.82500
Mg101      Mg  0.09535959  0.00598634  0.96548764     1.58000
C102        C  0.41599280  0.08896945  0.02524726     0.92900
O103        O  0.15761646  0.04943588  0.00863911    -0.80700
H104        H  0.02711303  0.08651323  0.11221739    -0.06100
C105        C  0.44068973  0.50618463  0.92140515     0.87900
O106        O  0.46412451  0.42525944  0.08384796    -0.75200
O107        O  0.07813335  0.05487461  0.96598166    -0.88000
O108        O  0.45468752  0.10743566  0.00894501    -0.80800
C109        C  0.09341528  0.17661061  0.97707435     0.93000
C110        C  0.17831416  0.08701277  0.02814713     0.92900
Mg111      Mg  0.41233907  0.49623030  0.03386882     1.58000
O112        O  0.34922435  0.45135834  0.99177815    -0.80700
O113        O  0.46867811  0.04005438  0.08657519    -0.75000
O114        O  0.11044613  0.15557861  0.99480842    -0.80800
O115        O  0.11423373  0.45482926  0.96425800    -0.82500
O116        O  0.39891947  0.34539482  0.00480948    -0.80800
C117        C  0.50767972  0.06867763  0.07950262     0.87300
O118        O  0.42963810  0.44690057  0.03408511    -0.88000
O119        O  0.45043271  0.02240799  0.96480708    -0.88100
O120        O  0.43024779  0.46719996  0.91326301    -0.75200
Mg121      Mg  0.09056768  0.09186096  0.03636133     1.58000
O122        O  0.05323641  0.15913593  0.96833188    -0.82500
H123        H  0.06379838  0.47480675  0.11013031    -0.06300
O124        O  0.48345252  0.42666242  0.96267774    -0.87800
H125        H  0.48057229  0.41616609  0.88683074    -0.06700
H126        H  0.41801659  0.43741858  0.10956532    -0.06300
C127        C  0.00011071  0.43379158  0.91957740     0.87300
C128        C  0.06625728  0.99522178  0.07816785     0.87900
C129        C  0.43596085  0.43615569  0.07688614     0.87900
H130        H  0.44261058  0.02616803  0.88920946    -0.06200
O131        O  0.04398989  0.07635356  0.91544766    -0.75300
Mg132      Mg  0.41712199  0.40946346  0.96390901     1.58000
H133        H  0.09031187  0.06423711  0.89060646    -0.06300
C134        C  0.09288833  0.41451737  0.97274162     0.92900
O135        O  0.45694312  0.34308913  0.03064708    -0.82500
C136        C  0.41679359  0.32488920  0.02198138     0.93000
O137        O  0.16066699  0.10929834  0.03811791    -0.82500
Mg138      Mg  0.49998324  0.08895221  0.96720374     1.58200
O139        O  0.05435187  0.39572744  0.98957979    -0.80800
O140        O  0.39417613  0.04853468  0.03366554    -0.82500
O141        O  0.47742762  0.05683424  0.46801813    -0.88100
C142        C  0.06102211  0.06658801  0.57973838     0.87900
Mg143      Mg  0.41088465  0.00957258  0.46821857     1.58100
O144        O  0.06845194  0.01872707  0.46468281    -0.87800
O145        O  0.03176498  0.07577778  0.41602238    -0.75100
C146        C  0.39767346  0.32352896  0.52138101     0.93000
O147        O  0.45888673  0.03608974  0.58907236    -0.75000
O148        O  0.37805642  0.34381616  0.53118148    -0.82500
Mg149      Mg  0.00362725  0.09343752  0.53824823     1.58000
C150        C  0.07462077  0.40439293  0.47366400     0.92900
O151        O  0.04880328  0.15674359  0.49684828    -0.80700
H152        H  0.08002547  0.02128211  0.38914162    -0.06100
C153        C  0.49536799  0.43303569  0.57758186     0.87900
O154        O  0.42162601  0.46515904  0.41447581    -0.75200
O155        O  0.05123136  0.07438126  0.53714856    -0.88000
O156        O  0.09444667  0.44332439  0.49014855    -0.80800
C157        C  0.17078396  0.08383466  0.52458400     0.93000
C158        C  0.08640287  0.17679532  0.47757648     0.92900
Mg159      Mg  0.48529037  0.40612878  0.46466216     1.58000
O160        O  0.43625056  0.34237595  0.50454701    -0.80700
O161        O  0.03222857  0.46311017  0.41402310    -0.75000
O162        O  0.15128938  0.10298808  0.50831280    -0.80800
O163        O  0.45321939  0.11361136  0.54036366    -0.82500
O164        O  0.33954666  0.40019784  0.49110806    -0.80800
C165        C  0.06150511  0.50198383  0.42155297     0.87300
O166        O  0.43909159  0.42700523  0.46385481    -0.88000
O167        O  0.01220633  0.44333590  0.53460840    -0.88100
O168        O  0.45680260  0.42380765  0.58507484    -0.75200
Mg169      Mg  0.08807481  0.08646071  0.46691437     1.58000
O170        O  0.15137079  0.04314531  0.53228072    -0.82500
H171        H  0.47383964  0.06630462  0.39284809    -0.06300
O172        O  0.42204499  0.48203494  0.53655929    -0.87800
H173        H  0.41109932  0.47740585  0.61234570    -0.06100
H174        H  0.43145571  0.41761579  0.38783974    -0.06300
C175        C  0.42931000  0.99762361  0.58034613     0.87300
C176        C  0.99350532  0.06690219  0.42466444     0.87900
C177        C  0.43027164  0.43527303  0.42096307     0.87900
H178        H  0.01436662  0.43318476  0.60991166    -0.06200
O179        O  0.06979268  0.03675696  0.58601482    -0.75300
Mg180      Mg  0.40120122  0.41496244  0.53327859     1.58000
H181        H  0.06055404  0.08461004  0.61288346    -0.06300
C182        C  0.41313664  0.09251667  0.53080139     0.92900
O183        O  0.34013611  0.46007070  0.46692289    -0.82500
C184        C  0.32055862  0.41962351  0.47449882     0.93000
O185        O  0.10771160  0.15803630  0.46744597    -0.82500
Mg186      Mg  0.07973344  0.49134956  0.53306539     1.58200
O187        O  0.39461345  0.05452223  0.51223944    -0.80800
O188        O  0.03430841  0.38386996  0.46521412    -0.82500
C189        C  0.17379321  0.37492004  0.66448016    -0.11100
C190        C  0.17169866  0.33988396  0.69082333     0.15400
C191        C  0.17201087  0.30661609  0.66248264     0.02300
C192        C  0.17070267  0.30734097  0.60877431    -0.15500
C193        C  0.16788853  0.33993526  0.58166661    -0.10300
C194        C  0.17488807  0.37684075  0.61064363     0.09000
C195        C  0.17066859  0.33956883  0.74778795     0.10100
S196        S  0.17521286  0.26292906  0.69247379    -0.24600
H197        H  0.17403906  0.28300218  0.58826032     0.20300
S198        S  0.18981335  0.42924682  0.58420381    -0.30300
H199        H  0.17637244  0.40193582  0.68627599     0.10600
C200        C  0.20551414  0.37045770  0.77685211     0.03900
C201        C  0.20285223  0.36899656  0.83056497    -0.12600
C202        C  0.16782587  0.33519416  0.85699325    -0.08300
C203        C  0.13083847  0.30705255  0.82701293     0.07300
C204        C  0.13347363  0.30879253  0.77312782    -0.13400
S205        S  0.25403739  0.41129781  0.74584130    -0.30300
H206        H  0.22786721  0.39569606  0.85156711     0.11500
S207        S  0.07799018  0.27008375  0.85236410    -0.27400
H208        H  0.10575003  0.28652220  0.75048639     0.08800
H209        H  0.20817879  0.42597033  0.53827260     0.27200
H210        H  0.27867561  0.42827493  0.79086043     0.22000
H211        H  0.08151831  0.29076965  0.89920812     0.27300
H212        H  0.19943738  0.28660178  0.73539734     0.16200
C213        C  0.13211507  0.32245211  0.16455977    -0.11100
C214        C  0.17034862  0.33406304  0.19099871     0.15400
C215        C  0.20646584  0.34035500  0.16276769     0.02300
C216        C  0.20381259  0.33643504  0.10925033    -0.15500
C217        C  0.16788750  0.33148515  0.08159239    -0.10300
C218        C  0.12981932  0.31973148  0.11069334     0.09000
C219        C  0.17027006  0.33560616  0.24809470     0.10100
S220        S  0.25726031  0.35428238  0.19230575    -0.24600
H221        H  0.23003474  0.33618381  0.08966357     0.20300
S222        S  0.07617192  0.29794787  0.08449021    -0.30300
H223        H  0.10336729  0.31445987  0.18639033     0.10600
C224        C  0.16364515  0.36592861  0.27468957     0.03900
C225        C  0.16319640  0.36568562  0.32866397    -0.12600
C226        C  0.16736154  0.33465056  0.35749513    -0.08300
C227        C  0.17951457  0.30785356  0.32998305     0.07300
C228        C  0.17836512  0.30715502  0.27612351    -0.13400
S229        S  0.15789989  0.40645148  0.24002529    -0.30300
H230        H  0.16198136  0.39154674  0.34808491     0.11500
S231        S  0.20004284  0.27563877  0.35827889    -0.27400
H232        H  0.18537979  0.28507024  0.25560599     0.08800
H233        H  0.08207477  0.28320694  0.03716813     0.27200
H234        H  0.14795608  0.42386111  0.28286121     0.22000
H235        H  0.21574142  0.29812065  0.40444529     0.27300
H236        H  0.25406242  0.37864394  0.23273137     0.16200
C237        C  0.36761909  0.20101960  0.72417169    -0.11100
C238        C  0.33356467  0.16824385  0.75192321     0.15400
C239        C  0.29992387  0.13366525  0.72492760     0.02300
C240        C  0.29982603  0.13409523  0.67108691    -0.15500
C241        C  0.33245576  0.16836115  0.64251899    -0.10300
C242        C  0.36912920  0.19995558  0.67044619     0.09000
C243        C  0.33514861  0.17004233  0.80892682     0.10100
S244        S  0.25699166  0.08722417  0.75675290    -0.24600
H245        H  0.27514798  0.10581481  0.65175913     0.20300
S246        S  0.42090638  0.23777895  0.64300242    -0.30300
H247        H  0.39454370  0.22663118  0.74489911     0.10600
C248        C  0.36795437  0.16846438  0.83647682     0.03900
C249        C  0.36803252  0.17012456  0.89024072    -0.12600
C250        C  0.33438856  0.16993425  0.91823220    -0.08300
C251        C  0.30491194  0.17774511  0.88973590     0.07300
C252        C  0.30468873  0.17575939  0.83581323    -0.13400
S253        S  0.40960359  0.16357600  0.80357027    -0.30300
H254        H  0.39575327  0.17342317  0.91008857     0.11500
S255        S  0.26879494  0.19402715  0.91671319    -0.27400
H256        H  0.28125824  0.18003615  0.81433886     0.08800
H257        H  0.41859818  0.21419149  0.59908190     0.27200
H258        H  0.42925924  0.15842181  0.84768217     0.22000
H259        H  0.28936014  0.21027581  0.96380196     0.27300
H260        H  0.28132995  0.08782811  0.79942026     0.16200
C261        C  0.37075545  0.19212012  0.33629409    -0.11100
C262        C  0.33399600  0.16249366  0.30914720     0.15400
C263        C  0.29875965  0.13030993  0.33679452     0.02300
C264        C  0.30028843  0.13000632  0.39044599    -0.15500
C265        C  0.33421627  0.16338620  0.41851135    -0.10300
C266        C  0.37210806  0.19224424  0.39024805     0.09000
C267        C  0.33449317  0.16397387  0.25204811     0.10100
S268        S  0.25039331  0.08901773  0.30620385    -0.24600
H269        H  0.27480614  0.10255830  0.40992028     0.20300
S270        S  0.42450605  0.22869472  0.41767345    -0.30300
H271        H  0.39909072  0.21493823  0.31500901     0.10600
C272        C  0.33695663  0.19915682  0.22513687     0.03900
C273        C  0.33625030  0.19856530  0.17115214    -0.12600
C274        C  0.33413851  0.16404364  0.14261471    -0.08300
C275        C  0.32613323  0.12642298  0.17071648     0.07300
C276        C  0.32937946  0.12821258  0.22440064    -0.13400
S277        S  0.33849488  0.24381400  0.25945010    -0.30300
H278        H  0.33481095  0.22422674  0.15156840     0.11500
S279        S  0.30795348  0.07335947  0.14375957    -0.27400
H280        H  0.32554822  0.10030803  0.24523142     0.08800
H281        H  0.41919543  0.21023374  0.46630880     0.27200
H282        H  0.34407169  0.26969758  0.21619108     0.22000
H283        H  0.29044478  0.07760613  0.09775359     0.27300
H284        H  0.25062882  0.11538269  0.26599266     0.16200
C285        C  0.33647330  0.66693311  0.08350181     0.30300
C286        C  0.33462019  0.66660269  0.97738461     0.30300
C287        C  0.36128819  0.64749546  0.05648186    -0.05900
C288        C  0.29168338  0.64318606  0.05797948    -0.06700
C289        C  0.35728621  0.71186076  0.05707666    -0.06600
C290        C  0.35916360  0.64614318  0.00266590    -0.05900
C291        C  0.29117181  0.64136046  0.00444423    -0.06700
C292        C  0.35522336  0.71080448  0.00338938    -0.06600
C293        C  0.37859847  0.62330842  0.98671317    -0.32000
N294        N  0.39495117  0.61375261  0.02818699     0.14500
C295        C  0.38522651  0.62867901  0.07104402    -0.32000
H296        H  0.39405659  0.62512398  0.10974773     0.16500
C297        C  0.24913319  0.61675598  0.98944197    -0.31000
N298        N  0.22390035  0.60672552  0.03161312     0.13200
C299        C  0.24921341  0.62264642  0.07399719    -0.31000
C300        C  0.37576752  0.75240382  0.98567755    -0.31200
N301        N  0.39140149  0.77914170  0.02658685     0.13700
H302        H  0.38038614  0.76256511  0.94585016     0.16400
C303        C  0.38186913  0.75526710  0.07024636    -0.31300
H304        H  0.39331756  0.76881561  0.10805067     0.16400
H305        H  0.23768558  0.61965752  0.11310625     0.16400
H306        H  0.37950803  0.61252347  0.94806519     0.16500
H307        H  0.23732694  0.60832708  0.95038036     0.16400
C308        C  0.33011931  0.66467601  0.47744012     0.30300
C309        C  0.32938331  0.66706602  0.58347425     0.30300
C310        C  0.35338949  0.64519283  0.50553485    -0.05900
C311        C  0.34831276  0.70945849  0.50196676    -0.06700
C312        C  0.28504914  0.64068106  0.50300238    -0.06600
C313        C  0.35379281  0.64668788  0.55885833    -0.05900
C314        C  0.34753729  0.71097512  0.55561499    -0.06700
C315        C  0.28436910  0.64122158  0.55714103    -0.06600
C316        C  0.37660917  0.62728853  0.57550773    -0.32000
N317        N  0.38899770  0.61400958  0.53324547     0.14500
C318        C  0.37465161  0.62436658  0.49060184    -0.32000
H319        H  0.37984177  0.61760455  0.45145333     0.16500
C320        C  0.36274303  0.75372289  0.56884403    -0.31000
N321        N  0.37476148  0.77758511  0.52515462     0.13200
C322        C  0.36476410  0.75091175  0.48424535    -0.31000
C323        C  0.24122489  0.62075412  0.57146022    -0.31200
N324        N  0.21673475  0.60819724  0.52825044     0.13700
H325        H  0.22822271  0.61676376  0.60987507     0.16400
C326        C  0.24285364  0.62162377  0.48673522    -0.31300
H327        H  0.23124796  0.61860464  0.44770428     0.16400
H328        H  0.36939106  0.76126382  0.44445191     0.16400
H329        H  0.38320922  0.62275638  0.61495405     0.16500
H330        H  0.36585185  0.76676716  0.60717704     0.16400
C331        C  0.17032712  0.83471010  0.02235382     0.30300
C332        C  0.16985893  0.83384398  0.91614882     0.30300
C333        C  0.14731915  0.85565255  0.99609309    -0.05900
C334        C  0.21491588  0.85973607  0.99606009    -0.06700
C335        C  0.15090715  0.79051788  0.99643666    -0.06600
C336        C  0.14696487  0.85534429  0.94249183    -0.05900
C337        C  0.21505246  0.85741566  0.94219749    -0.06700
C338        C  0.15019755  0.78940966  0.94278544    -0.06600
C339        C  0.12653063  0.87745230  0.92694790    -0.32000
N340        N  0.11446031  0.89035810  0.96978631     0.14500
C341        C  0.12797131  0.87833360  0.01184669    -0.32000
H342        H  0.12458040  0.88639349  0.05107609     0.16500
C343        C  0.25793365  0.87563545  0.92765550    -0.31000
N344        N  0.28285343  0.89297175  0.96991217     0.13200
C345        C  0.25719313  0.88470591  0.01131099    -0.31000
C346        C  0.13095350  0.74624943  0.92903103    -0.31200
N347        N  0.11964786  0.72228540  0.97273596     0.13700
H348        H  0.12505837  0.73306439  0.89048930     0.16400
C349        C  0.13227387  0.74892208  0.01390828    -0.31300
H350        H  0.12648513  0.73858186  0.05366835     0.16400
H351        H  0.26923289  0.89587491  0.04971710     0.16400
H352        H  0.12101365  0.88374640  0.88777826     0.16500
H353        H  0.27040225  0.87582450  0.88970309     0.16400
C354        C  0.16359011  0.83467359  0.41651892     0.30300
C355        C  0.16377123  0.83662497  0.52262332     0.30300
C356        C  0.13832721  0.85487085  0.44193014    -0.05900
C357        C  0.14223547  0.79014580  0.44376881    -0.06700
C358        C  0.20768301  0.85985505  0.44283588    -0.06600
C359        C  0.13875006  0.85543616  0.49592535    -0.05900
C360        C  0.14226011  0.79139160  0.49763167    -0.06700
C361        C  0.20736389  0.85956653  0.49618030    -0.06600
C362        C  0.11290810  0.87113284  0.51205782    -0.32000
N363        N  0.09798499  0.88188926  0.47034194     0.14500
C364        C  0.11169189  0.87089196  0.42729468    -0.32000
H365        H  0.10229110  0.87404478  0.38877511     0.16500
C366        C  0.11885380  0.74930673  0.51440644    -0.31000
N367        N  0.10694868  0.72271318  0.47319933     0.13200
C368        C  0.11980258  0.74689726  0.42973053    -0.31000
C369        C  0.24912924  0.88131134  0.51270291    -0.31200
N370        N  0.27491882  0.89579407  0.47092671     0.13700
H371        H  0.26010725  0.88668166  0.55227601     0.16400
C372        C  0.25031634  0.88332390  0.42775904    -0.31300
H373        H  0.26248609  0.88982911  0.38872866     0.16400
H374        H  0.11278966  0.73389694  0.39106047     0.16400
H375        H  0.10515653  0.87446875  0.55141305     0.16500
H376        H  0.11047772  0.73821114  0.55365679     0.16400
O377        O  0.05725361  0.97956416  0.03443774    -0.88100
C378        C  0.07217431  0.56561701  0.92300050     0.87900
Mg379      Mg  0.00861818  0.91328944  0.03174182     1.58100
O380        O  0.02450835  0.57541743  0.03653938    -0.87800
O381        O  0.07623308  0.53397037  0.08694750    -0.75100
C382        C  0.32858959  0.91320660  0.97355353     0.93000
O383        O  0.03906108  0.96256066  0.91244533    -0.75000
O384        O  0.34663193  0.89121612  0.96381642    -0.82500
Mg385      Mg  0.09535958  0.50598636  0.96548760     1.58000
C386        C  0.41599285  0.58896943  0.02524728     0.92900
O387        O  0.15761652  0.54943605  0.00863883    -0.80700
H388        H  0.02711304  0.58651341  0.11221737    -0.06100
C389        C  0.44068974  0.00618471  0.92140481     0.87900
O390        O  0.46412450  0.92525931  0.08384786    -0.75200
O391        O  0.07813337  0.55487465  0.96598166    -0.88000
O392        O  0.45468751  0.60743562  0.00894498    -0.80800
C393        C  0.09341532  0.67661062  0.97707438     0.93000
C394        C  0.17831418  0.58701283  0.02814704     0.92900
Mg395      Mg  0.41233906  0.99623029  0.03386873     1.58000
O396        O  0.34922448  0.95135847  0.99177775    -0.80700
O397        O  0.46867814  0.54005450  0.08657520    -0.75000
O398        O  0.11044620  0.65557869  0.99480848    -0.80800
O399        O  0.11423375  0.95482928  0.96425800    -0.82500
O400        O  0.39891934  0.84539474  0.00480942    -0.80800
C401        C  0.50767974  0.56867777  0.07950262     0.87300
O402        O  0.42963803  0.94690041  0.03408503    -0.88000
O403        O  0.45043268  0.52240803  0.96480717    -0.88100
O404        O  0.43024778  0.96719996  0.91326268    -0.75200
Mg405      Mg  0.09056768  0.59186095  0.03636134     1.58000
O406        O  0.05323648  0.65913594  0.96833182    -0.82500
H407        H  0.06379831  0.97480696  0.11013017    -0.06300
O408        O  0.48345250  0.92666247  0.96267753    -0.87800
H409        H  0.48057207  0.91616596  0.88682993    -0.06700
H410        H  0.41801611  0.93741833  0.10956598    -0.06300
C411        C  0.00011097  0.93379178  0.91957745     0.87300
C412        C  0.06625737  0.49522177  0.07816781     0.87900
C413        C  0.43596087  0.93615550  0.07688584     0.87900
H414        H  0.44261056  0.52616832  0.88920887    -0.06200
O415        O  0.04398974  0.57635339  0.91544764    -0.75300
Mg416      Mg  0.41712192  0.90946337  0.96390876     1.58000
H417        H  0.09031167  0.56423689  0.89060639    -0.06300
C418        C  0.09288833  0.91451739  0.97274154     0.92900
O419        O  0.45694311  0.84308915  0.03064677    -0.82500
C420        C  0.41679353  0.82488916  0.02198127     0.93000
O421        O  0.16066699  0.60929838  0.03811795    -0.82500
Mg422      Mg  0.49998321  0.58895217  0.96720374     1.58200
O423        O  0.05435181  0.89572744  0.98957953    -0.80800
O424        O  0.39417613  0.54853465  0.03366559    -0.82500
O425        O  0.47742760  0.55683415  0.46801811    -0.88100
C426        C  0.06102200  0.56658785  0.57973838     0.87900
Mg427      Mg  0.41088462  0.50957260  0.46821856     1.58100
O428        O  0.06845191  0.51872707  0.46468280    -0.87800
O429        O  0.03176492  0.57577764  0.41602230    -0.75100
C430        C  0.39767342  0.82352896  0.52138092     0.93000
O431        O  0.45888673  0.53608980  0.58907232    -0.75000
O432        O  0.37805636  0.84381616  0.53118120    -0.82500
Mg433      Mg  0.00362730  0.59343745  0.53824821     1.58000
C434        C  0.07462082  0.90439293  0.47366400     0.92900
O435        O  0.04880327  0.65674358  0.49684829    -0.80700
H436        H  0.08002500  0.52128169  0.38914216    -0.06100
C437        C  0.49536796  0.93303572  0.57758188     0.87900
O438        O  0.42162606  0.96515908  0.41447581    -0.75200
O439        O  0.05123129  0.57438111  0.53714855    -0.88000
O440        O  0.09444668  0.94332441  0.49014852    -0.80800
C441        C  0.17078394  0.58383472  0.52458401     0.93000
C442        C  0.08640283  0.67679530  0.47757644     0.92900
Mg443      Mg  0.48529033  0.90612876  0.46466216     1.58000
O444        O  0.43625054  0.84237588  0.50454701    -0.80700
O445        O  0.03222873  0.96311019  0.41402307    -0.75000
O446        O  0.15128941  0.60298818  0.50831281    -0.80800
O447        O  0.45321947  0.61361129  0.54036367    -0.82500
O448        O  0.33954662  0.90019778  0.49110812    -0.80800
C449        C  0.06150514  0.00198376  0.42155309     0.87300
O450        O  0.43909147  0.92700512  0.46385477    -0.88000
O451        O  0.01220638  0.94333589  0.53460839    -0.88100
O452        O  0.45680251  0.92380752  0.58507482    -0.75200
Mg453      Mg  0.08807476  0.58646067  0.46691436     1.58000
O454        O  0.15137070  0.54314536  0.53228073    -0.82500
H455        H  0.47383980  0.56630455  0.39284818    -0.06300
O456        O  0.42204497  0.98203489  0.53655927    -0.87800
H457        H  0.41109930  0.97740581  0.61234561    -0.06100
H458        H  0.43145562  0.91761568  0.38783956    -0.06300
C459        C  0.42931005  0.49762368  0.58034614     0.87300
C460        C  0.99350527  0.56690206  0.42466447     0.87900
C461        C  0.43027157  0.93527299  0.42096309     0.87900
H462        H  0.01436629  0.93318491  0.60991105    -0.06200
O463        O  0.06979254  0.53675679  0.58601485    -0.75300
Mg464      Mg  0.40120116  0.91496236  0.53327855     1.58000
H465        H  0.06055392  0.58460989  0.61288345    -0.06300
C466        C  0.41313669  0.59251672  0.53080139     0.92900
O467        O  0.34013621  0.96007067  0.46692283    -0.82500
C468        C  0.32055863  0.91962347  0.47449883     0.93000
O469        O  0.10771157  0.65803630  0.46744595    -0.82500
Mg470      Mg  0.07973356  0.99134960  0.53306540     1.58200
O471        O  0.39461348  0.55452226  0.51223939    -0.80800
O472        O  0.03430845  0.88386991  0.46521415    -0.82500
C473        C  0.17379322  0.87492010  0.66448014    -0.11100
C474        C  0.17169872  0.83988402  0.69082329     0.15400
C475        C  0.17201094  0.80661618  0.66248263     0.02300
C476        C  0.17070264  0.80734088  0.60877422    -0.15500
C477        C  0.16788855  0.83993530  0.58166658    -0.10300
C478        C  0.17488804  0.87684077  0.61064359     0.09000
C479        C  0.17066861  0.83956885  0.74778791     0.10100
S480        S  0.17521291  0.76292916  0.69247381    -0.24600
H481        H  0.17403891  0.78300256  0.58826073     0.20300
S482        S  0.18981337  0.92924691  0.58420382    -0.30300
H483        H  0.17637244  0.90193578  0.68627591     0.10600
C484        C  0.20551413  0.87045768  0.77685208     0.03900
C485        C  0.20285221  0.86899646  0.83056495    -0.12600
C486        C  0.16782582  0.83519408  0.85699321    -0.08300
C487        C  0.13083840  0.80705249  0.82701289     0.07300
C488        C  0.13347363  0.80879241  0.77312774    -0.13400
S489        S  0.25403739  0.91129792  0.74584134    -0.30300
H490        H  0.22786710  0.89569587  0.85156704     0.11500
S491        S  0.07799010  0.77008362  0.85236408    -0.27400
H492        H  0.10575022  0.78652211  0.75048637     0.08800
H493        H  0.20817881  0.92597043  0.53827260     0.27200
H494        H  0.27867562  0.92827486  0.79086050     0.22000
H495        H  0.08151818  0.79076958  0.89920806     0.27300
H496        H  0.19943745  0.78660192  0.73539734     0.16200
C497        C  0.13211514  0.82245216  0.16455972    -0.11100
C498        C  0.17034862  0.83406299  0.19099871     0.15400
C499        C  0.20646588  0.84035506  0.16276774     0.02300
C500        C  0.20381287  0.83643517  0.10925027    -0.15500
C501        C  0.16788767  0.83148523  0.08159239    -0.10300
C502        C  0.12981950  0.81973145  0.11069330     0.09000
C503        C  0.17026993  0.83560606  0.24809470     0.10100
S504        S  0.25726024  0.85428223  0.19230581    -0.24600
H505        H  0.23003431  0.83618386  0.08966419     0.20300
S506        S  0.07617217  0.79794798  0.08449018    -0.30300
H507        H  0.10336739  0.81446004  0.18639017     0.10600
C508        C  0.16364507  0.86592857  0.27468953     0.03900
C509        C  0.16319643  0.86568575  0.32866400    -0.12600
C510        C  0.16736157  0.83465062  0.35749511    -0.08300
C511        C  0.17951458  0.80785362  0.32998306     0.07300
C512        C  0.17836500  0.80715494  0.27612352    -0.13400
S513        S  0.15789993  0.90645157  0.24002531    -0.30300
H514        H  0.16198149  0.89154648  0.34808458     0.11500
S515        S  0.20004289  0.77563890  0.35827890    -0.27400
H516        H  0.18537962  0.78507015  0.25560611     0.08800
H517        H  0.08207490  0.78320683  0.03716821     0.27200
H518        H  0.14795592  0.92386105  0.28286122     0.22000
H519        H  0.21574149  0.79812076  0.40444530     0.27300
H520        H  0.25406239  0.87864378  0.23273147     0.16200
C521        C  0.36761920  0.70101967  0.72417174    -0.11100
C522        C  0.33356467  0.66824386  0.75192321     0.15400
C523        C  0.29992384  0.63366528  0.72492764     0.02300
C524        C  0.29982592  0.63409510  0.67108684    -0.15500
C525        C  0.33245577  0.66836116  0.64251901    -0.10300
C526        C  0.36912915  0.69995558  0.67044617     0.09000
C527        C  0.33514864  0.67004227  0.80892682     0.10100
S528        S  0.25699161  0.58722409  0.75675288    -0.24600
H529        H  0.27514851  0.60581536  0.65175961     0.20300
S530        S  0.42090633  0.73777884  0.64300238    -0.30300
H531        H  0.39454349  0.72663082  0.74489881     0.10600
C532        C  0.36795437  0.66846421  0.83647683     0.03900
C533        C  0.36803249  0.67012440  0.89024069    -0.12600
C534        C  0.33438863  0.66993418  0.91823222    -0.08300
C535        C  0.30491209  0.67774524  0.88973592     0.07300
C536        C  0.30468899  0.67575946  0.83581334    -0.13400
S537        S  0.40960351  0.66357583  0.80357025    -0.30300
H538        H  0.39575359  0.67342311  0.91008873     0.11500
S539        S  0.26879506  0.69402727  0.91671319    -0.27400
H540        H  0.28125798  0.68003641  0.81433844     0.08800
H541        H  0.41859813  0.71419135  0.59908190     0.27200
H542        H  0.42925936  0.65842193  0.84768215     0.22000
H543        H  0.28936006  0.71027570  0.96380211     0.27300
H544        H  0.28132997  0.58782794  0.79942011     0.16200
C545        C  0.37075538  0.69212019  0.33629409    -0.11100
C546        C  0.33399599  0.66249369  0.30914719     0.15400
C547        C  0.29875965  0.63030990  0.33679455     0.02300
C548        C  0.30028853  0.63000648  0.39044591    -0.15500
C549        C  0.33421623  0.66338619  0.41851136    -0.10300
C550        C  0.37210801  0.69224428  0.39024803     0.09000
C551        C  0.33449311  0.66397384  0.25204810     0.10100
S552        S  0.25039345  0.58901755  0.30620386    -0.24600
H553        H  0.27480547  0.60255768  0.40992082     0.20300
S554        S  0.42450598  0.72869460  0.41767347    -0.30300
H555        H  0.39909075  0.71493839  0.31500896     0.10600
C556        C  0.33695667  0.69915683  0.22513686     0.03900
C557        C  0.33625031  0.69856530  0.17115212    -0.12600
C558        C  0.33413843  0.66404358  0.14261472    -0.08300
C559        C  0.32613312  0.62642288  0.17071648     0.07300
C560        C  0.32937935  0.62821250  0.22440064    -0.13400
S561        S  0.33849519  0.74381415  0.25945009    -0.30300
H562        H  0.33481107  0.72422671  0.15156846     0.11500
S563        S  0.30795336  0.57335934  0.14375956    -0.27400
H564        H  0.32554811  0.60030793  0.24523145     0.08800
H565        H  0.41919531  0.71023359  0.46630879     0.27200
H566        H  0.34407201  0.76969774  0.21619109     0.22000
H567        H  0.29044474  0.57760610  0.09775357     0.27300
H568        H  0.25062873  0.61538256  0.26599289     0.16200
C569        C  0.83647334  0.16693311  0.08350180     0.30300
C570        C  0.83462014  0.16660269  0.97738460     0.30300
C571        C  0.86128831  0.14749557  0.05648182    -0.05900
C572        C  0.79168338  0.14318593  0.05797951    -0.06700
C573        C  0.85728614  0.21186075  0.05707663    -0.06600
C574        C  0.85916357  0.14614318  0.00266587    -0.05900
C575        C  0.79117177  0.14136042  0.00444424    -0.06700
C576        C  0.85522328  0.21080448  0.00338937    -0.06600
C577        C  0.87859835  0.12330832  0.98671317    -0.32000
N578        N  0.89495120  0.11375265  0.02818697     0.14500
C579        C  0.88522661  0.12867912  0.07104396    -0.32000
H580        H  0.89405668  0.12512404  0.10974786     0.16500
C581        C  0.74913317  0.11675606  0.98944204    -0.31000
N582        N  0.72390032  0.10672554  0.03161310     0.13200
C583        C  0.74921338  0.12264630  0.07399730    -0.31000
C584        C  0.87576746  0.25240386  0.98567756    -0.31200
N585        N  0.89140139  0.27914169  0.02658690     0.13700
H586        H  0.88038608  0.26256513  0.94585023     0.16400
C587        C  0.88186905  0.25526708  0.07024635    -0.31300
H588        H  0.89331751  0.26881555  0.10805075     0.16400
H589        H  0.73768566  0.11965740  0.11310586     0.16400
H590        H  0.87950782  0.11252330  0.94806517     0.16500
H591        H  0.73732679  0.10832715  0.95038007     0.16400
C592        C  0.83011931  0.16467600  0.47744012     0.30300
C593        C  0.82938329  0.16706601  0.58347426     0.30300
C594        C  0.85338952  0.14519289  0.50553486    -0.05900
C595        C  0.84831263  0.20945844  0.50196675    -0.06700
C596        C  0.78504915  0.14068096  0.50300239    -0.06600
C597        C  0.85379284  0.14668794  0.55885834    -0.05900
C598        C  0.84753716  0.21097506  0.55561498    -0.06700
C599        C  0.78436910  0.14122144  0.55714104    -0.06600
C600        C  0.87660908  0.12728847  0.57550773    -0.32000
N601        N  0.88899762  0.11400956  0.53324548     0.14500
C602        C  0.87465155  0.12436655  0.49060178    -0.32000
H603        H  0.87984158  0.11760451  0.45145360     0.16500
C604        C  0.86274300  0.25372284  0.56884405    -0.31000
N605        N  0.87476160  0.27758509  0.52515463     0.13200
C606        C  0.86476406  0.25091171  0.48424536    -0.31000
C607        C  0.74122486  0.12075399  0.57146030    -0.31200
N608        N  0.71673476  0.10819722  0.52825037     0.13700
H609        H  0.72822283  0.11676364  0.60987469     0.16400
C610        C  0.74285371  0.12162381  0.48673530    -0.31300
H611        H  0.73124797  0.11860475  0.44770382     0.16400
H612        H  0.86939099  0.26126377  0.44445187     0.16400
H613        H  0.88320898  0.12275620  0.61495405     0.16500
H614        H  0.86585182  0.26676706  0.60717693     0.16400
C615        C  0.67032702  0.33471002  0.02235384     0.30300
C616        C  0.66985891  0.33384400  0.91614885     0.30300
C617        C  0.64731909  0.35565253  0.99609310    -0.05900
C618        C  0.71491578  0.35973596  0.99606011    -0.06700
C619        C  0.65090706  0.29051779  0.99643667    -0.06600
C620        C  0.64696489  0.35534437  0.94249186    -0.05900
C621        C  0.71505239  0.35741553  0.94219755    -0.06700
C622        C  0.65019748  0.28940962  0.94278544    -0.06600
C623        C  0.62653064  0.37745237  0.92694787    -0.32000
N624        N  0.61446022  0.39035805  0.96978634     0.14500
C625        C  0.62797127  0.37833360  0.01184676    -0.32000
H626        H  0.62458038  0.38639345  0.05107584     0.16500
C627        C  0.75793364  0.37563535  0.92765538    -0.31000
N628        N  0.78285335  0.39297168  0.96991227     0.13200
C629        C  0.75719302  0.38470594  0.01131101    -0.31000
C630        C  0.63095359  0.24624946  0.92903108    -0.31200
N631        N  0.61964783  0.22228531  0.97273591     0.13700
H632        H  0.62505848  0.23306429  0.89048888     0.16400
C633        C  0.63227391  0.24892202  0.01390827    -0.31300
H634        H  0.62648517  0.23858171  0.05366839     0.16400
H635        H  0.76923270  0.39587502  0.04971704     0.16400
H636        H  0.62101368  0.38374647  0.88777850     0.16500
H637        H  0.77040197  0.37582447  0.88970387     0.16400
C638        C  0.66359008  0.33467358  0.41651894     0.30300
C639        C  0.66377122  0.33662497  0.52262333     0.30300
C640        C  0.63832713  0.35487081  0.44193017    -0.05900
C641        C  0.64223542  0.29014579  0.44376879    -0.06700
C642        C  0.70768300  0.35985507  0.44283592    -0.06600
C643        C  0.63874995  0.35543606  0.49592540    -0.05900
C644        C  0.64226011  0.29139161  0.49763167    -0.06700
C645        C  0.70736391  0.35956650  0.49618035    -0.06600
C646        C  0.61290797  0.37113272  0.51205782    -0.32000
N647        N  0.59798496  0.38188923  0.47034198     0.14500
C648        C  0.61169188  0.37089200  0.42729470    -0.32000
H649        H  0.60229124  0.37404495  0.38877520     0.16500
C650        C  0.61885396  0.24930678  0.51440639    -0.31000
N651        N  0.60694880  0.22271318  0.47319938     0.13200
C652        C  0.61980254  0.24689725  0.42973055    -0.31000
C653        C  0.74912930  0.38131132  0.51270289    -0.31200
N654        N  0.77491885  0.39579402  0.47092666     0.13700
H655        H  0.76010740  0.38668178  0.55227603     0.16400
C656        C  0.75031631  0.38332386  0.42775906    -0.31300
H657        H  0.76248608  0.38982914  0.38872846     0.16400
H658        H  0.61278951  0.23389688  0.39106044     0.16400
H659        H  0.60515637  0.37446869  0.55141332     0.16500
H660        H  0.61047785  0.23821113  0.55365715     0.16400
O661        O  0.55725362  0.47956417  0.03443770    -0.88100
C662        C  0.57217444  0.06561709  0.92300052     0.87900
Mg663      Mg  0.50861816  0.41328950  0.03174196     1.58100
O664        O  0.52450836  0.07541734  0.03653937    -0.87800
O665        O  0.57623311  0.03397043  0.08694753    -0.75100
C666        C  0.82858950  0.41320654  0.97355371     0.93000
O667        O  0.53906109  0.46256049  0.91244544    -0.75000
O668        O  0.84663193  0.39121619  0.96381646    -0.82500
Mg669      Mg  0.59535969  0.00598632  0.96548765     1.58000
C670        C  0.91599284  0.08896944  0.02524728     0.92900
O671        O  0.65761653  0.04943589  0.00863913    -0.80700
H672        H  0.52711308  0.08651343  0.11221742    -0.06100
C673        C  0.94068984  0.50618465  0.92140516     0.87900
O674        O  0.96412463  0.42525948  0.08384789    -0.75200
O675        O  0.57813347  0.05487462  0.96598164    -0.88000
O676        O  0.95468754  0.10743563  0.00894507    -0.80800
C677        C  0.59341527  0.17661061  0.97707434     0.93000
C678        C  0.67831416  0.08701280  0.02814712     0.92900
Mg679      Mg  0.91233901  0.49623031  0.03386882     1.58000
O680        O  0.84922431  0.45135836  0.99177814    -0.80700
O681        O  0.96867805  0.04005439  0.08657520    -0.75000
O682        O  0.61044610  0.15557862  0.99480847    -0.80800
O683        O  0.61423383  0.45482926  0.96425805    -0.82500
O684        O  0.89891945  0.34539484  0.00480952    -0.80800
C685        C  0.00767971  0.06867761  0.07950264     0.87300
O686        O  0.92963805  0.44690054  0.03408519    -0.88000
O687        O  0.95043280  0.02240797  0.96480710    -0.88100
O688        O  0.93024772  0.46719994  0.91326300    -0.75200
Mg689      Mg  0.59056766  0.09186095  0.03636134     1.58000
O690        O  0.55323641  0.15913591  0.96833183    -0.82500
H691        H  0.56379861  0.47480698  0.11012997    -0.06300
O692        O  0.98345250  0.42666238  0.96267778    -0.87800
H693        H  0.98057220  0.41616618  0.88683083    -0.06700
H694        H  0.91801645  0.43741860  0.10956597    -0.06300
C695        C  0.50011081  0.43379159  0.91957741     0.87300
C696        C  0.56625736  0.99522175  0.07816787     0.87900
C697        C  0.93596100  0.43615569  0.07688606     0.87900
H698        H  0.94261083  0.02616815  0.88920943    -0.06200
O699        O  0.54398997  0.07635355  0.91544770    -0.75300
Mg700      Mg  0.91712194  0.40946345  0.96390903     1.58000
H701        H  0.59031197  0.06423702  0.89060625    -0.06300
C702        C  0.59288835  0.41451738  0.97274163     0.92900
O703        O  0.95694311  0.34308911  0.03064704    -0.82500
C704        C  0.91679356  0.32488920  0.02198138     0.93000
O705        O  0.66066691  0.10929831  0.03811789    -0.82500
Mg706      Mg  0.99998321  0.08895221  0.96720373     1.58200
O707        O  0.55435185  0.39572750  0.98957977    -0.80800
O708        O  0.89417610  0.04853468  0.03366551    -0.82500
O709        O  0.97742760  0.05683427  0.46801808    -0.88100
C710        C  0.56102202  0.06658800  0.57973838     0.87900
Mg711      Mg  0.91088459  0.00957259  0.46821855     1.58100
O712        O  0.56845182  0.01872707  0.46468280    -0.87800
O713        O  0.53176491  0.07577782  0.41602230    -0.75100
C714        C  0.89767347  0.32352897  0.52138101     0.93000
O715        O  0.95888661  0.03608974  0.58907235    -0.75000
O716        O  0.87805642  0.34381614  0.53118152    -0.82500
Mg717      Mg  0.50362729  0.09343754  0.53824823     1.58000
C718        C  0.57462082  0.40439296  0.47366400     0.92900
O719        O  0.54880329  0.15674362  0.49684821    -0.80700
H720        H  0.58002553  0.02128225  0.38914139    -0.06100
C721        C  0.99536797  0.43303570  0.57758184     0.87900
O722        O  0.92162609  0.46515909  0.41447578    -0.75200
O723        O  0.55123131  0.07438127  0.53714855    -0.88000
O724        O  0.59444669  0.44332441  0.49014856    -0.80800
C725        C  0.67078395  0.08383465  0.52458398     0.93000
C726        C  0.58640289  0.17679532  0.47757647     0.92900
Mg727      Mg  0.98529027  0.40612880  0.46466216     1.58000
O728        O  0.93625055  0.34237597  0.50454696    -0.80700
O729        O  0.53222870  0.46311015  0.41402309    -0.75000
O730        O  0.65128938  0.10298810  0.50831280    -0.80800
O731        O  0.95321940  0.11361133  0.54036363    -0.82500
O732        O  0.83954664  0.40019782  0.49110810    -0.80800
C733        C  0.56150507  0.50198381  0.42155304     0.87300
O734        O  0.93909149  0.42700518  0.46385482    -0.88000
O735        O  0.51220640  0.44333585  0.53460844    -0.88100
O736        O  0.95680258  0.42380762  0.58507489    -0.75200
Mg737      Mg  0.58807474  0.08646071  0.46691437     1.58000
O738        O  0.65137074  0.04314532  0.53228072    -0.82500
H739        H  0.97383971  0.06630458  0.39284793    -0.06300
O740        O  0.92204489  0.48203493  0.53655930    -0.87800
H741        H  0.91109918  0.47740588  0.61234570    -0.06100
H742        H  0.93145570  0.41761556  0.38783942    -0.06300
C743        C  0.92930989  0.99762361  0.58034613     0.87300
C744        C  0.49350525  0.06690221  0.42466445     0.87900
C745        C  0.93027160  0.43527306  0.42096314     0.87900
H746        H  0.51436656  0.43318472  0.60991174    -0.06200
O747        O  0.56979257  0.03675695  0.58601483    -0.75300
Mg748      Mg  0.90120116  0.41496242  0.53327862     1.58000
H749        H  0.56055392  0.08461003  0.61288345    -0.06300
C750        C  0.91313661  0.09251669  0.53080138     0.92900
O751        O  0.84013616  0.46007071  0.46692285    -0.82500
C752        C  0.82055863  0.41962350  0.47449878     0.93000
O753        O  0.60771161  0.15803628  0.46744601    -0.82500
Mg754      Mg  0.57973349  0.49134958  0.53306540     1.58200
O755        O  0.89461339  0.05452223  0.51223945    -0.80800
O756        O  0.53430848  0.38386992  0.46521410    -0.82500
C757        C  0.67379314  0.37492002  0.66448017    -0.11100
C758        C  0.67169875  0.33988402  0.69082333     0.15400
C759        C  0.67201097  0.30661616  0.66248263     0.02300
C760        C  0.67070262  0.30734097  0.60877431    -0.15500
C761        C  0.66788847  0.33993525  0.58166660    -0.10300
C762        C  0.67488796  0.37684073  0.61064363     0.09000
C763        C  0.67066861  0.33956882  0.74778793     0.10100
S764        S  0.67521277  0.26292904  0.69247379    -0.24600
H765        H  0.67403898  0.28300214  0.58826032     0.20300
S766        S  0.68981324  0.42924681  0.58420382    -0.30300
H767        H  0.67637228  0.40193572  0.68627599     0.10600
C768        C  0.70551415  0.37045766  0.77685214     0.03900
C769        C  0.70285218  0.36899657  0.83056498    -0.12600
C770        C  0.66782585  0.33519421  0.85699326    -0.08300
C771        C  0.63083847  0.30705257  0.82701289     0.07300
C772        C  0.63347375  0.30879259  0.77312786    -0.13400
S773        S  0.75403732  0.41129783  0.74584130    -0.30300
H774        H  0.72786721  0.39569614  0.85156721     0.11500
S775        S  0.57799027  0.27008370  0.85236410    -0.27400
H776        H  0.60574963  0.28652176  0.75048596     0.08800
H777        H  0.70817868  0.42597029  0.53827261     0.27200
H778        H  0.77867554  0.42827496  0.79086043     0.22000
H779        H  0.58151837  0.29076961  0.89920810     0.27300
H780        H  0.69943730  0.28660172  0.73539736     0.16200
C781        C  0.63211526  0.32245214  0.16455965    -0.11100
C782        C  0.67034865  0.33406305  0.19099870     0.15400
C783        C  0.70646587  0.34035499  0.16276770     0.02300
C784        C  0.70381278  0.33643504  0.10925026    -0.15500
C785        C  0.66788760  0.33148515  0.08159238    -0.10300
C786        C  0.62981944  0.31973146  0.11069333     0.09000
C787        C  0.67027004  0.33560614  0.24809469     0.10100
S788        S  0.75726029  0.35428240  0.19230580    -0.24600
H789        H  0.73003437  0.33618379  0.08966404     0.20300
S790        S  0.57617207  0.29794786  0.08449020    -0.30300
H791        H  0.60336671  0.31445968  0.18639076     0.10600
C792        C  0.66364510  0.36592858  0.27468956     0.03900
C793        C  0.66319650  0.36568568  0.32866399    -0.12600
C794        C  0.66736158  0.33465059  0.35749513    -0.08300
C795        C  0.67951455  0.30785355  0.32998304     0.07300
C796        C  0.67836519  0.30715506  0.27612348    -0.13400
S797        S  0.65789978  0.40645146  0.24002532    -0.30300
H798        H  0.66198149  0.39154679  0.34808494     0.11500
S799        S  0.70004274  0.27563873  0.35827891    -0.27400
H800        H  0.68537993  0.28507043  0.25560605     0.08800
H801        H  0.58207486  0.28320690  0.03716812     0.27200
H802        H  0.64795620  0.42386121  0.28286132     0.22000
H803        H  0.71574133  0.29812063  0.40444530     0.27300
H804        H  0.75406235  0.37864395  0.23273141     0.16200
C805        C  0.86761918  0.20101964  0.72417173    -0.11100
C806        C  0.83356464  0.16824386  0.75192320     0.15400
C807        C  0.79992382  0.13366527  0.72492760     0.02300
C808        C  0.79982608  0.13409520  0.67108690    -0.15500
C809        C  0.83245576  0.16836119  0.64251899    -0.10300
C810        C  0.86912920  0.19995562  0.67044616     0.09000
C811        C  0.83514859  0.17004233  0.80892682     0.10100
S812        S  0.75699157  0.08722420  0.75675289    -0.24600
H813        H  0.77514805  0.10581468  0.65175907     0.20300
S814        S  0.92090648  0.23777891  0.64300242    -0.30300
H815        H  0.89454342  0.22663075  0.74489883     0.10600
C816        C  0.86795438  0.16846438  0.83647684     0.03900
C817        C  0.86803251  0.17012455  0.89024070    -0.12600
C818        C  0.83438861  0.16993426  0.91823222    -0.08300
C819        C  0.80491196  0.17774515  0.88973592     0.07300
C820        C  0.80468887  0.17575938  0.83581336    -0.13400
S821        S  0.90960353  0.16357600  0.80357025    -0.30300
H822        H  0.89575351  0.17342317  0.91008871     0.11500
S823        S  0.76879490  0.19402713  0.91671318    -0.27400
H824        H  0.78125772  0.18003626  0.81433838     0.08800
H825        H  0.91859823  0.21419146  0.59908188     0.27200
H826        H  0.92925919  0.15842180  0.84768213     0.22000
H827        H  0.78936006  0.21027579  0.96380196     0.27300
H828        H  0.78132993  0.08782804  0.79942011     0.16200
C829        C  0.87075555  0.19212010  0.33629408    -0.11100
C830        C  0.83399607  0.16249366  0.30914721     0.15400
C831        C  0.79875970  0.13030998  0.33679454     0.02300
C832        C  0.80028857  0.13000637  0.39044595    -0.15500
C833        C  0.83421633  0.16338620  0.41851136    -0.10300
C834        C  0.87210813  0.19224429  0.39024806     0.09000
C835        C  0.83449312  0.16397386  0.25204810     0.10100
S836        S  0.75039344  0.08901771  0.30620386    -0.24600
H837        H  0.77480595  0.10255798  0.40992050     0.20300
S838        S  0.92450616  0.22869470  0.41767346    -0.30300
H839        H  0.89909080  0.21493813  0.31500901     0.10600
C840        C  0.83695655  0.19915678  0.22513686     0.03900
C841        C  0.83625023  0.19856528  0.17115211    -0.12600
C842        C  0.83413858  0.16404368  0.14261470    -0.08300
C843        C  0.82613316  0.12642298  0.17071648     0.07300
C844        C  0.82937934  0.12821255  0.22440063    -0.13400
S845        S  0.83849504  0.24381404  0.25945012    -0.30300
H846        H  0.83481089  0.22422667  0.15156838     0.11500
S847        S  0.80795336  0.07335947  0.14375956    -0.27400
H848        H  0.82554810  0.10030801  0.24523140     0.08800
H849        H  0.91919541  0.21023381  0.46630888     0.27200
H850        H  0.84407186  0.26969762  0.21619110     0.22000
H851        H  0.79044488  0.07760616  0.09775343     0.27300
H852        H  0.75062877  0.11538268  0.26599279     0.16200
C853        C  0.83647335  0.66693310  0.08350182     0.30300
C854        C  0.83462018  0.66660268  0.97738461     0.30300
C855        C  0.86128829  0.64749550  0.05648185    -0.05900
C856        C  0.79168341  0.64318603  0.05797949    -0.06700
C857        C  0.85728616  0.71186076  0.05707666    -0.06600
C858        C  0.85916361  0.64614317  0.00266591    -0.05900
C859        C  0.79117181  0.64136047  0.00444425    -0.06700
C860        C  0.85522334  0.71080447  0.00338938    -0.06600
C861        C  0.87859845  0.62330841  0.98671320    -0.32000
N862        N  0.89495127  0.61375265  0.02818692     0.14500
C863        C  0.88522663  0.62867904  0.07104407    -0.32000
H864        H  0.89405663  0.62512396  0.10974738     0.16500
C865        C  0.74913317  0.61675601  0.98944200    -0.31000
N866        N  0.72390039  0.60672557  0.03161312     0.13200
C867        C  0.74921340  0.62264641  0.07399728    -0.31000
C868        C  0.87576758  0.75240382  0.98567755    -0.31200
N869        N  0.89140144  0.77914170  0.02658685     0.13700
H870        H  0.88038630  0.76256511  0.94585014     0.16400
C871        C  0.88186902  0.75526711  0.07024636    -0.31300
H872        H  0.89331746  0.76881562  0.10805068     0.16400
H873        H  0.73768574  0.61965758  0.11310586     0.16400
H874        H  0.87950796  0.61252337  0.94806503     0.16500
H875        H  0.73732692  0.60832714  0.95038036     0.16400
C876        C  0.83011931  0.66467604  0.47744011     0.30300
C877        C  0.82938331  0.66706604  0.58347426     0.30300
C878        C  0.85338945  0.64519284  0.50553488    -0.05900
C879        C  0.84831267  0.70945849  0.50196674    -0.06700
C880        C  0.78504916  0.64068107  0.50300236    -0.06600
C881        C  0.85379280  0.64668790  0.55885835    -0.05900
C882        C  0.84753724  0.71097512  0.55561499    -0.06700
C883        C  0.78436913  0.64122156  0.55714102    -0.06600
C884        C  0.87660919  0.62728856  0.57550779    -0.32000
N885        N  0.88899763  0.61400958  0.53324544     0.14500
C886        C  0.87465152  0.62436656  0.49060184    -0.32000
H887        H  0.87984163  0.61760454  0.45145336     0.16500
C888        C  0.86274316  0.75372292  0.56884405    -0.31000
N889        N  0.87476159  0.77758512  0.52515461     0.13200
C890        C  0.86476404  0.75091175  0.48424535    -0.31000
C891        C  0.74122495  0.62075406  0.57146022    -0.31200
N892        N  0.71673477  0.60819719  0.52825042     0.13700
H893        H  0.72822280  0.61676373  0.60987507     0.16400
C894        C  0.74285368  0.62162373  0.48673521    -0.31300
H895        H  0.73124799  0.61860459  0.44770420     0.16400
H896        H  0.86939096  0.76126381  0.44445184     0.16400
H897        H  0.88320923  0.62275648  0.61495370     0.16500
H898        H  0.86585210  0.76676720  0.60717704     0.16400
C899        C  0.67032704  0.83471009  0.02235383     0.30300
C900        C  0.66985889  0.83384396  0.91614881     0.30300
C901        C  0.64731907  0.85565252  0.99609307    -0.05900
C902        C  0.71491579  0.85973605  0.99606010    -0.06700
C903        C  0.65090708  0.79051787  0.99643666    -0.06600
C904        C  0.64696482  0.85534427  0.94249182    -0.05900
C905        C  0.71505239  0.85741562  0.94219750    -0.06700
C906        C  0.65019750  0.78940965  0.94278544    -0.06600
C907        C  0.62653060  0.87745231  0.92694782    -0.32000
N908        N  0.61446037  0.89035812  0.96978631     0.14500
C909        C  0.62797127  0.87833361  0.01184675    -0.32000
H910        H  0.62458039  0.88639345  0.05107585     0.16500
C911        C  0.75793358  0.87563545  0.92765551    -0.31000
N912        N  0.78285335  0.89297177  0.96991217     0.13200
C913        C  0.75719303  0.88470592  0.01131099    -0.31000
C914        C  0.63095355  0.74624943  0.92903103    -0.31200
N915        N  0.61964784  0.72228541  0.97273596     0.13700
H916        H  0.62505850  0.73306440  0.89048933     0.16400
C917        C  0.63227391  0.74892209  0.01390828    -0.31300
H918        H  0.62648522  0.73858187  0.05366838     0.16400
H919        H  0.76923280  0.89587495  0.04971712     0.16400
H920        H  0.62101367  0.88374639  0.88777855     0.16500
H921        H  0.77040223  0.87582455  0.88970301     0.16400
C922        C  0.66359014  0.83467360  0.41651889     0.30300
C923        C  0.66377126  0.83662500  0.52262331     0.30300
C924        C  0.63832720  0.85487086  0.44193011    -0.05900
C925        C  0.64223547  0.79014581  0.44376880    -0.06700
C926        C  0.70768305  0.85985506  0.44283589    -0.06600
C927        C  0.63875007  0.85543617  0.49592533    -0.05900
C928        C  0.64226018  0.79139161  0.49763166    -0.06700
C929        C  0.70736394  0.85956653  0.49618031    -0.06600
C930        C  0.61290807  0.87113283  0.51205783    -0.32000
N931        N  0.59798499  0.88188928  0.47034194     0.14500
C932        C  0.61169184  0.87089195  0.42729467    -0.32000
H933        H  0.60229107  0.87404478  0.38877510     0.16500
C934        C  0.61885394  0.74930674  0.51440643    -0.31000
N935        N  0.60694876  0.72271318  0.47319933     0.13200
C936        C  0.61980251  0.74689726  0.42973053    -0.31000
C937        C  0.74912929  0.88131129  0.51270291    -0.31200
N938        N  0.77491885  0.89579403  0.47092671     0.13700
H939        H  0.76010735  0.88668163  0.55227600     0.16400
C940        C  0.75031641  0.88332389  0.42775896    -0.31300
H941        H  0.76248606  0.88982906  0.38872903     0.16400
H942        H  0.61278949  0.73389694  0.39106044     0.16400
H943        H  0.60515650  0.87446871  0.55141298     0.16500
H944        H  0.61047783  0.73821112  0.55365684     0.16400
O945        O  0.55725357  0.97956418  0.03443770    -0.88100
C946        C  0.57217434  0.56561699  0.92300050     0.87900
Mg947      Mg  0.50861815  0.91328946  0.03174180     1.58100
O948        O  0.52450837  0.57541742  0.03653938    -0.87800
O949        O  0.57623302  0.53397036  0.08694752    -0.75100
C950        C  0.82858949  0.91320660  0.97355354     0.93000
O951        O  0.53906114  0.96256061  0.91244538    -0.75000
O952        O  0.84663183  0.89121613  0.96381642    -0.82500
Mg953      Mg  0.59535969  0.50598636  0.96548761     1.58000
C954        C  0.91599284  0.58896943  0.02524726     0.92900
O955        O  0.65761660  0.54943605  0.00863885    -0.80700
H956        H  0.52711310  0.58651360  0.11221740    -0.06100
C957        C  0.94068985  0.00618472  0.92140483     0.87900
O958        O  0.96412450  0.92525931  0.08384782    -0.75200
O959        O  0.57813348  0.55487466  0.96598163    -0.88000
O960        O  0.95468755  0.60743558  0.00894502    -0.80800
C961        C  0.59341524  0.67661063  0.97707438     0.93000
C962        C  0.67831416  0.58701283  0.02814705     0.92900
Mg963      Mg  0.91233900  0.99623030  0.03386872     1.58000
O964        O  0.84922438  0.95135848  0.99177775    -0.80700
O965        O  0.96867807  0.54005451  0.08657521    -0.75000
O966        O  0.61044609  0.65557868  0.99480849    -0.80800
O967        O  0.61423390  0.95482930  0.96425801    -0.82500
O968        O  0.89891933  0.84539477  0.00480946    -0.80800
C969        C  0.00767973  0.56867774  0.07950264     0.87300
O970        O  0.92963796  0.94690040  0.03408506    -0.88000
O971        O  0.95043277  0.52240802  0.96480720    -0.88100
O972        O  0.93024770  0.96719994  0.91326268    -0.75200
Mg973      Mg  0.59056763  0.59186093  0.03636134     1.58000
O974        O  0.55323641  0.65913596  0.96833182    -0.82500
H975        H  0.56379852  0.97480710  0.11012985    -0.06300
O976        O  0.98345251  0.92666242  0.96267755    -0.87800
H977        H  0.98057187  0.91616571  0.88682966    -0.06700
H978        H  0.91801607  0.93741841  0.10956619    -0.06300
C979        C  0.50011093  0.93379178  0.91957738     0.87300
C980        C  0.56625740  0.49522175  0.07816784     0.87900
C981        C  0.93596090  0.93615552  0.07688583     0.87900
H982        H  0.94261081  0.52616844  0.88920884    -0.06200
O983        O  0.54398982  0.57635338  0.91544768    -0.75300
Mg984      Mg  0.91712186  0.90946336  0.96390877     1.58000
H985        H  0.59031178  0.56423679  0.89060619    -0.06300
C986        C  0.59288843  0.91451743  0.97274155     0.92900
O987        O  0.95694311  0.84308913  0.03064673    -0.82500
C988        C  0.91679350  0.82488916  0.02198128     0.93000
O989        O  0.66066695  0.60929834  0.03811793    -0.82500
Mg990      Mg  0.99998319  0.58895217  0.96720373     1.58200
O991        O  0.55435191  0.89572748  0.98957955    -0.80800
O992        O  0.89417608  0.54853465  0.03366554    -0.82500
O993        O  0.97742764  0.55683411  0.46801814    -0.88100
C994        C  0.56102189  0.56658783  0.57973838     0.87900
Mg995      Mg  0.91088462  0.50957262  0.46821855     1.58100
O996        O  0.56845181  0.51872706  0.46468282    -0.87800
O997        O  0.53176490  0.57577762  0.41602233    -0.75100
C998        C  0.89767350  0.82352897  0.52138092     0.93000
O999        O  0.95888666  0.53608980  0.58907232    -0.75000
O1000       O  0.87805645  0.84381616  0.53118119    -0.82500
Mg1001     Mg  0.50362726  0.59343746  0.53824820     1.58000
C1002       C  0.57462078  0.90439293  0.47366400     0.92900
O1003       O  0.54880326  0.65674361  0.49684822    -0.80700
H1004       H  0.58002514  0.52128194  0.38914190    -0.06100
C1005       C  0.99536812  0.93303572  0.57758198     0.87900
O1006       O  0.92162613  0.96515912  0.41447578    -0.75200
O1007       O  0.55123121  0.57438111  0.53714854    -0.88000
O1008       O  0.59444662  0.94332442  0.49014853    -0.80800
C1009       C  0.67078398  0.58383473  0.52458401     0.93000
C1010       C  0.58640284  0.67679531  0.47757644     0.92900
Mg1011     Mg  0.98529030  0.90612877  0.46466216     1.58000
O1012       O  0.93625064  0.84237589  0.50454701    -0.80700
O1013       O  0.53222867  0.96311019  0.41402306    -0.75000
O1014       O  0.65128943  0.60298821  0.50831283    -0.80800
O1015       O  0.95321940  0.61361127  0.54036366    -0.82500
O1016       O  0.83954661  0.90019781  0.49110814    -0.80800
C1017       C  0.56150503  0.00198373  0.42155315     0.87300
O1018       O  0.93909138  0.92700508  0.46385478    -0.88000
O1019       O  0.51220637  0.94333584  0.53460847    -0.88100
O1020       O  0.95680255  0.92380750  0.58507487    -0.75200
Mg1021     Mg  0.58807471  0.58646066  0.46691439     1.58000
O1022       O  0.65137070  0.54314538  0.53228073    -0.82500
H1023       H  0.97383966  0.56630449  0.39284810    -0.06300
O1024       O  0.92204486  0.98203489  0.53655928    -0.87800
H1025       H  0.91109919  0.97740581  0.61234561    -0.06100
H1026       H  0.93145561  0.91761545  0.38783923    -0.06300
C1027       C  0.92930994  0.49762369  0.58034614     0.87300
C1028       C  0.49350523  0.56690208  0.42466442     0.87900
C1029       C  0.93027154  0.93527302  0.42096316     0.87900
H1030       H  0.51436656  0.93318494  0.60991183    -0.06200
O1031       O  0.56979247  0.53675679  0.58601483    -0.75300
Mg1032     Mg  0.90120112  0.91496236  0.53327858     1.58000
H1033       H  0.56055377  0.58460985  0.61288346    -0.06300
C1034       C  0.91313662  0.59251671  0.53080136     0.92900
O1035       O  0.84013614  0.96007068  0.46692282    -0.82500
C1036       C  0.82055861  0.91962348  0.47449881     0.93000
O1037       O  0.60771157  0.65803627  0.46744600    -0.82500
Mg1038     Mg  0.57973349  0.99134961  0.53306541     1.58200
O1039       O  0.89461338  0.55452225  0.51223938    -0.80800
O1040       O  0.53430844  0.88386987  0.46521413    -0.82500
C1041       C  0.67379320  0.87492009  0.66448015    -0.11100
C1042       C  0.67169874  0.83988402  0.69082329     0.15400
C1043       C  0.67201090  0.80661614  0.66248263     0.02300
C1044       C  0.67070254  0.80734089  0.60877428    -0.15500
C1045       C  0.66788852  0.83993529  0.58166658    -0.10300
C1046       C  0.67488810  0.87684080  0.61064359     0.09000
C1047       C  0.67066860  0.83956886  0.74778791     0.10100
S1048       S  0.67521307  0.76292920  0.69247380    -0.24600
H1049       H  0.67403888  0.78300228  0.58826049     0.20300
S1050       S  0.68981328  0.92924691  0.58420382    -0.30300
H1051       H  0.67637230  0.90193565  0.68627586     0.10600
C1052       C  0.70551413  0.87045763  0.77685209     0.03900
C1053       C  0.70285217  0.86899646  0.83056494    -0.12600
C1054       C  0.66782583  0.83519406  0.85699320    -0.08300
C1055       C  0.63083842  0.80705253  0.82701288     0.07300
C1056       C  0.63347354  0.80879241  0.77312767    -0.13400
S1057       S  0.75403732  0.91129794  0.74584133    -0.30300
H1058       H  0.72786713  0.89569603  0.85156714     0.11500
S1059       S  0.57799020  0.77008358  0.85236409    -0.27400
H1060       H  0.60575049  0.78652239  0.75048663     0.08800
H1061       H  0.70817874  0.92597045  0.53827260     0.27200
H1062       H  0.77867556  0.92827489  0.79086049     0.22000
H1063       H  0.58151824  0.79076954  0.89920806     0.27300
H1064       H  0.69943740  0.78660192  0.73539746     0.16200
C1065       C  0.63211516  0.82245215  0.16455971    -0.11100
C1066       C  0.67034864  0.83406301  0.19099869     0.15400
C1067       C  0.70646592  0.84035505  0.16276772     0.02300
C1068       C  0.70381282  0.83643517  0.10925026    -0.15500
C1069       C  0.66788762  0.83148524  0.08159239    -0.10300
C1070       C  0.62981944  0.81973145  0.11069332     0.09000
C1071       C  0.67026993  0.83560604  0.24809465     0.10100
S1072       S  0.75726034  0.85428221  0.19230577    -0.24600
H1073       H  0.73003434  0.83618384  0.08966405     0.20300
S1074       S  0.57617209  0.79794799  0.08449020    -0.30300
H1075       H  0.60336723  0.81445994  0.18639032     0.10600
C1076       C  0.66364501  0.86592854  0.27468952     0.03900
C1077       C  0.66319653  0.86568570  0.32866394    -0.12600
C1078       C  0.66736168  0.83465067  0.35749508    -0.08300
C1079       C  0.67951470  0.80785367  0.32998296     0.07300
C1080       C  0.67836510  0.80715505  0.27612349    -0.13400
S1081       S  0.65789982  0.90645155  0.24002534    -0.30300
H1082       H  0.66198152  0.89154683  0.34808493     0.11500
S1083       S  0.70004281  0.77563885  0.35827890    -0.27400
H1084       H  0.68537988  0.78506997  0.25560573     0.08800
H1085       H  0.58207480  0.78320682  0.03716823     0.27200
H1086       H  0.64795604  0.92386116  0.28286133     0.22000
H1087       H  0.71574141  0.79812076  0.40444526     0.27300
H1088       H  0.75406247  0.87864375  0.23273144     0.16200
C1089       C  0.86761912  0.70101963  0.72417168    -0.11100
C1090       C  0.83356468  0.66824387  0.75192322     0.15400
C1091       C  0.79992385  0.63366529  0.72492763     0.02300
C1092       C  0.79982598  0.63409508  0.67108685    -0.15500
C1093       C  0.83245575  0.66836119  0.64251900    -0.10300
C1094       C  0.86912915  0.69995566  0.67044617     0.09000
C1095       C  0.83514861  0.67004228  0.80892684     0.10100
S1096       S  0.75699174  0.58722406  0.75675289    -0.24600
H1097       H  0.77514855  0.60581518  0.65175954     0.20300
S1098       S  0.92090642  0.73777879  0.64300240    -0.30300
H1099       H  0.89454382  0.72663118  0.74489909     0.10600
C1100       C  0.86795430  0.66846422  0.83647683     0.03900
C1101       C  0.86803249  0.67012441  0.89024071    -0.12600
C1102       C  0.83438859  0.66993419  0.91823222    -0.08300
C1103       C  0.80491204  0.67774523  0.88973594     0.07300
C1104       C  0.80468884  0.67575948  0.83581326    -0.13400
S1105       S  0.90960342  0.66357582  0.80357022    -0.30300
H1106       H  0.89575339  0.67342310  0.91008858     0.11500
S1107       S  0.76879497  0.69402727  0.91671319    -0.27400
H1108       H  0.78125839  0.68003633  0.81433888     0.08800
H1109       H  0.91859810  0.71419139  0.59908178     0.27200
H1110       H  0.92925934  0.65842196  0.84768206     0.22000
H1111       H  0.78935999  0.71027570  0.96380210     0.27300
H1112       H  0.78133007  0.58782804  0.79942023     0.16200
C1113       C  0.87075554  0.69212017  0.33629409    -0.11100
C1114       C  0.83399612  0.66249367  0.30914719     0.15400
C1115       C  0.79875976  0.63030987  0.33679452     0.02300
C1116       C  0.80028867  0.63000645  0.39044589    -0.15500
C1117       C  0.83421634  0.66338620  0.41851135    -0.10300
C1118       C  0.87210815  0.69224427  0.39024804     0.09000
C1119       C  0.83449323  0.66397385  0.25204810     0.10100
S1120       S  0.75039341  0.58901760  0.30620388    -0.24600
H1121       H  0.77480561  0.60255769  0.40992080     0.20300
S1122       S  0.92450613  0.72869459  0.41767349    -0.30300
H1123       H  0.89909090  0.71493838  0.31500896     0.10600
C1124       C  0.83695665  0.69915680  0.22513687     0.03900
C1125       C  0.83625041  0.69856524  0.17115218    -0.12600
C1126       C  0.83413859  0.66404362  0.14261472    -0.08300
C1127       C  0.82613327  0.62642291  0.17071648     0.07300
C1128       C  0.82937949  0.62821249  0.22440067    -0.13400
S1129       S  0.83849508  0.74381412  0.25945008    -0.30300
H1130       H  0.83481113  0.72422701  0.15156819     0.11500
S1131       S  0.80795326  0.57335932  0.14375955    -0.27400
H1132       H  0.82554824  0.60030813  0.24523130     0.08800
H1133       H  0.91919538  0.71023356  0.46630882     0.27200
H1134       H  0.84407189  0.76969769  0.21619105     0.22000
H1135       H  0.79044487  0.57760618  0.09775343     0.27300
H1136       H  0.75062876  0.61538264  0.26599289     0.16200
loop_ 
_geom_bond_atom_site_label_1 
_geom_bond_atom_site_label_2 
_geom_bond_distance 
_geom_bond_site_symmetry_2 
_ccdc_geom_bond_type 
C1            C3   1.549       .  S
C1            C5   1.554       .  S
C1            C4   1.543       .  S
C1          C274   1.539       .  S
C2            C6   1.550   1_556  S
C2            C8   1.527   1_556  S
C2            C7   1.528   1_556  S
C2          C250   1.542       .  S
C3           C11   1.387       .  A
C3            C6   1.400       .  A
C4           C15   1.385       .  A
C4            C7   1.392       .  A
C5           C19   1.391       .  A
C5            C8   1.396       .  A
C6            C9   1.381   1_554  A
C7           C13   1.369   1_554  A
C8           C16   1.369   1_554  A
C9           N10   1.352   1_556  A
C9           H22   1.082       .  S
N10          C11   1.355       .  A
N10         C102   1.430       .  S
C11          H12   1.081       .  S
C13          N14   1.351   1_556  A
C13          H23   1.082       .  S
N14          C15   1.358       .  A
N14         C110   1.425       .  S
C15          H21   1.082       .  S
C16          N17   1.349   1_556  A
C16          H18   1.082       .  S
N17          C19   1.358       .  A
N17         C136   1.425       .  S
C19          H20   1.081       .  S
C24          C26   1.520       .  S
C24          C28   1.552       .  S
C24          C27   1.534       .  S
C24         C265   1.541       .  S
C25          C29   1.536       .  S
C25          C31   1.561       .  S
C25          C30   1.548       .  S
C25         C241   1.537       .  S
C26          C34   1.366       .  A
C26          C29   1.386       .  A
C27          C38   1.374       .  A
C27          C30   1.395       .  A
C28          C42   1.380       .  A
C28          C31   1.407       .  A
C29          C32   1.385       .  A
C30          C36   1.386       .  A
C31          C39   1.393       .  A
C32          N33   1.358       .  A
C32          H45   1.083       .  S
N33          C34   1.351       .  A
N33         C182   1.423       .  S
C34          H35   1.083       .  S
C36          N37   1.355       .  A
C36          H46   1.081       .  S
N37          C38   1.351       .  A
N37         C146   1.427       .  S
C38          H44   1.083       .  S
C39          N40   1.356       .  A
C39          H41   1.081       .  S
N40          C42   1.350       .  A
N40         C157   1.432       .  S
C42          H43   1.081       .  S
C47          C49   1.530   1_554  S
C47          C51   1.528   1_554  S
C47          C50   1.549   1_554  S
C47         C217   1.543       .  S
C48          C52   1.542       .  S
C48          C54   1.544       .  S
C48          C53   1.559       .  S
C48         C202   1.540       .  S
C49          C57   1.372   1_556  A
C49          C52   1.392       .  A
C50          C61   1.379   1_556  A
C50          C53   1.402       .  A
C51          C65   1.369   1_556  A
C51          C54   1.394       .  A
C52          C55   1.385       .  A
C53          C59   1.391       .  A
C54          C62   1.386       .  A
C55          N56   1.357       .  A
C55          H68   1.082       .  S
N56          C57   1.352   1_556  A
N56         C134   1.426       .  S
C57          H58   1.082       .  S
C59          N60   1.354       .  A
C59          H69   1.082       .  S
N60          C61   1.350   1_556  A
N60          C98   1.429       .  S
C61          H67   1.081       .  S
C62          N63   1.358       .  A
C62          H64   1.081       .  S
N63          C65   1.350   1_556  A
N63         C109   1.425       .  S
C65          H66   1.082       .  S
C70          C72   1.564       .  S
C70          C74   1.535       .  S
C70          C73   1.552       .  S
C70         C226   1.539       .  S
C71          C75   1.536       .  S
C71          C77   1.520       .  S
C71          C76   1.544       .  S
C71         C193   1.540       .  S
C72          C80   1.395       .  A
C72          C75   1.403       .  A
C73          C84   1.389       .  A
C73          C76   1.400       .  A
C74          C88   1.384       .  A
C74          C77   1.386       .  A
C75          C78   1.372       .  A
C76          C82   1.378       .  A
C77          C85   1.368       .  A
C78          N79   1.349       .  A
C78          H91   1.082       .  S
N79          C80   1.358       .  A
N79         C150   1.431       .  S
C80          H81   1.080       .  S
C82          N83   1.351       .  A
C82          H92   1.081       .  S
N83          C84   1.356       .  A
N83         C158   1.430       .  S
C84          H90   1.082       .  S
C85          N86   1.351       .  A
C85          H87   1.083       .  S
N86          C88   1.357       .  A
N86         C184   1.422       .  S
C88          H89   1.083       .  S
O93         Mg95   2.128       .  S
O93        Mg385   2.164   1_554  S
O93         C412   1.235       .  S
C94         H133   1.081       .  S
C94         O107   1.235       .  S
C94         O131   1.268       .  A
Mg95        O692   2.170   1_454  S
Mg95        O139   2.312   1_554  S
Mg95        O703   2.255   1_455  S
Mg95        O674   2.295   1_455  S
O96        Mg121   2.142       .  S
O96        Mg706   2.166   1_454  S
O96         C685   1.234       .  S
O97         C128   1.268   1_545  A
O97        Mg121   2.287       .  S
C98         O100   1.273       .  A
C98         O112   1.274       .  A
O99         C127   1.268       .  A
O99        Mg385   2.291       .  S
O100       Mg132   2.278       .  S
Mg101       O107   2.133       .  S
Mg101       O377   2.164   1_546  S
Mg101       O103   2.277   1_556  S
Mg101       O383   2.291   1_545  S
Mg101       O399   2.254   1_545  S
C102        O140   1.273       .  A
C102        O108   1.276       .  A
O103        C110   1.271       .  A
H104        C685   1.081       .  S
C105        H414   1.081       .  S
C105        O403   1.235       .  S
C105        O120   1.269       .  A
O106        C129   1.269       .  A
O106       Mg663   2.295       .  S
O107       Mg121   2.168   1_556  S
O108       Mg138   2.314   1_554  S
C109        O122   1.274       .  A
C109        O114   1.273       .  A
C110        O137   1.272       .  A
Mg111       O118   2.150       .  S
Mg111       O403   2.165   1_554  S
Mg111       O112   2.294   1_554  S
Mg111       O397   2.290       .  S
Mg111       O424   2.275       .  S
O113        C117   1.268       .  A
O113       Mg395   2.290   1_545  S
O114       Mg121   2.293   1_556  S
O115        C134   1.269       .  A
O115       Mg385   2.254       .  S
O116        C136   1.276       .  A
O116       Mg132   2.308   1_554  S
C117        H672   1.081       .  S
C117        O664   1.234       .  S
O118       Mg132   2.171   1_554  S
O118        C129   1.235       .  S
O119       Mg138   2.143       .  S
O119       Mg395   2.165   1_546  S
O119        C389   1.235       .  S
O120       Mg132   2.294       .  S
Mg121       O137   2.273       .  S
O122       Mg706   2.270   1_455  S
H123        C412   1.081       .  S
O124       Mg132   2.144       .  S
O124       Mg663   2.170   1_556  S
O124        C695   1.235       .  S
H125        C695   1.081       .  S
H126        C129   1.081       .  S
C127        H693   1.081   1_455  S
C127        O692   1.235   1_455  S
C128        H407   1.081       .  S
C128        O377   1.235       .  S
H130        C389   1.081       .  S
O131       Mg706   2.288   1_455  S
C134        O139   1.276       .  A
O135        C136   1.271       .  A
O135       Mg663   2.255       .  S
Mg138       O664   2.166   1_556  S
Mg138       O690   2.270       .  S
Mg138       O699   2.288       .  S
O140       Mg395   2.275   1_545  S
O141       Mg143   2.126       .  S
O141       Mg717   2.165       .  S
O141        C744   1.235       .  S
C142        H181   1.081       .  S
C142        O155   1.235       .  S
C142        O179   1.269       .  A
Mg143       O456   2.166   1_545  S
Mg143       O187   2.279       .  S
Mg143       O467   2.255   1_545  S
Mg143       O438   2.291   1_545  S
O144       Mg169   2.162       .  S
O144       Mg470   2.165   1_545  S
O144        C449   1.235       .  S
O145        C176   1.267   1_455  A
O145       Mg169   2.284       .  S
C146        O148   1.268       .  A
C146        O160   1.277       .  A
O147        C175   1.268   1_545  A
O147       Mg717   2.288       .  S
O148       Mg180   2.250       .  S
Mg149       O155   2.140       .  S
Mg149       O709   2.165   1_455  S
Mg149       O151   2.290       .  S
Mg149       O715   2.288   1_455  S
Mg149       O731   2.266   1_455  S
C150        O188   1.272       .  A
C150        O156   1.280       .  A
O151        C158   1.273       .  A
H152        C449   1.081       .  S
C153        H746   1.081       .  S
C153        O735   1.235       .  S
C153        O168   1.269       .  A
O154        C177   1.268       .  A
O154       Mg427   2.291       .  S
O155       Mg169   2.167       .  S
O156       Mg186   2.324       .  S
C157        O170   1.277       .  A
C157        O162   1.276       .  A
C158        O185   1.276       .  A
Mg159       O166   2.139       .  S
Mg159       O735   2.171       .  S
Mg159       O160   2.315       .  S
Mg159       O729   2.300       .  S
Mg159       O756   2.272       .  S
O161        C165   1.270       .  A
O161       Mg727   2.300   1_455  S
O162       Mg169   2.307       .  S
O163        C182   1.271       .  A
O163       Mg717   2.266       .  S
O164        C184   1.272       .  A
O164       Mg180   2.284       .  S
C165        H436   1.081       .  S
C165        O428   1.235       .  S
O166       Mg180   2.170       .  S
O166        C177   1.235       .  S
O167       Mg186   2.159       .  S
O167       Mg727   2.171   1_455  S
O167        C721   1.235   1_455  S
O168       Mg180   2.296       .  S
Mg169       O185   2.293       .  S
O170       Mg470   2.297   1_545  S
H171        C744   1.081       .  S
O172       Mg180   2.130       .  S
O172       Mg427   2.166       .  S
O172        C459   1.235       .  S
H173        C459   1.081       .  S
H174        C177   1.081       .  S
C175        H457   1.081       .  S
C175        O456   1.235       .  S
C176        H739   1.081       .  S
C176        O709   1.235       .  S
H178        C721   1.081   1_455  S
O179       Mg470   2.292   1_545  S
C182        O187   1.272       .  A
O183        C184   1.269       .  A
O183       Mg427   2.255       .  S
Mg186       O428   2.165       .  S
Mg186       O454   2.297       .  S
Mg186       O463   2.292       .  S
O188       Mg727   2.272   1_455  S
C189        C190   1.399       .  A
C189        C194   1.400       .  A
C189        H199   1.084       .  S
C190        C191   1.406       .  A
C190        C195   1.480       .  S
C191        C192   1.397       .  A
C191        S196   1.805       .  S
C192        C193   1.411       .  A
C192        H197   1.079       .  S
C193        C194   1.429       .  A
C194        S198   1.810       .  S
C195        C200   1.403       .  A
C195        C204   1.399       .  A
S196        H212   1.406       .  S
S198        H209   1.397       .  S
C200        C201   1.398       .  A
C200        S205   1.809       .  S
C201        C202   1.412       .  A
C201        H206   1.075       .  S
C202        C203   1.429       .  A
C203        C204   1.402       .  A
C203        S207   1.809       .  S
C204        H208   1.084       .  S
S205        H210   1.407       .  S
S207        H211   1.397       .  S
C213        C214   1.400       .  A
C213        C218   1.402       .  A
C213        H223   1.084       .  S
C214        C215   1.408       .  A
C214        C219   1.484       .  S
C215        C216   1.396       .  A
C215        S220   1.805       .  S
C216        C217   1.410       .  A
C216        H221   1.076       .  S
C217        C218   1.430       .  A
C218        S222   1.811       .  S
C219        C224   1.405       .  A
C219        C228   1.398       .  A
S220        H236   1.406       .  S
S222        H233   1.395       .  S
C224        C225   1.402       .  A
C224        S229   1.808       .  S
C225        C226   1.411       .  A
C225        H230   1.075       .  S
C226        C227   1.430       .  A
C227        C228   1.400       .  A
C227        S231   1.811       .  S
C228        H232   1.084       .  S
S229        H234   1.407       .  S
S231        H235   1.395       .  S
C237        C238   1.398       .  A
C237        C242   1.398       .  A
C237        H247   1.084       .  S
C238        C239   1.408       .  A
C238        C243   1.482       .  S
C239        C240   1.399       .  A
C239        S244   1.805       .  S
C240        C241   1.410       .  A
C240        H245   1.078       .  S
C241        C242   1.430       .  A
C242        S246   1.810       .  S
C243        C248   1.406       .  A
C243        C252   1.399       .  A
S244        H260   1.406       .  S
S246        H257   1.397       .  S
C248        C249   1.398       .  A
C248        S253   1.809       .  S
C249        C250   1.409       .  A
C249        H254   1.075       .  S
C250        C251   1.432       .  A
C251        C252   1.402       .  A
C251        S255   1.812       .  S
C252        H256   1.084       .  S
S253        H258   1.407       .  S
S255        H259   1.396       .  S
C261        C262   1.400       .  A
C261        C266   1.402       .  A
C261        H271   1.084       .  S
C262        C263   1.409       .  A
C262        C267   1.484       .  S
C263        C264   1.395       .  A
C263        S268   1.805       .  S
C264        C265   1.408       .  A
C264        H269   1.076       .  S
C265        C266   1.432       .  A
C266        S270   1.813       .  S
C267        C272   1.406       .  A
C267        C276   1.398       .  A
S268        H284   1.407       .  S
S270        H281   1.395       .  S
C272        C273   1.403       .  A
C272        S277   1.808       .  S
C273        C274   1.411       .  A
C273        H278   1.075       .  S
C274        C275   1.430       .  A
C275        C276   1.398       .  A
C275        S279   1.812       .  S
C276        H280   1.084       .  S
S277        H282   1.407       .  S
S279        H283   1.395       .  S
C285        C287   1.549       .  S
C285        C289   1.554       .  S
C285        C288   1.543       .  S
C285        C558   1.539       .  S
C286        C290   1.550   1_556  S
C286        C292   1.527   1_556  S
C286        C291   1.528   1_556  S
C286        C534   1.542       .  S
C287        C295   1.387       .  A
C287        C290   1.400       .  A
C288        C299   1.385       .  A
C288        C291   1.392       .  A
C289        C303   1.391       .  A
C289        C292   1.396       .  A
C290        C293   1.381   1_554  A
C291        C297   1.369   1_554  A
C292        C300   1.369   1_554  A
C293        N294   1.352   1_556  A
C293        H306   1.082       .  S
N294        C295   1.355       .  A
N294        C386   1.430       .  S
C295        H296   1.081       .  S
C297        N298   1.351   1_556  A
C297        H307   1.082       .  S
N298        C299   1.358       .  A
N298        C394   1.425       .  S
C299        H305   1.082       .  S
C300        N301   1.349   1_556  A
C300        H302   1.082       .  S
N301        C303   1.358       .  A
N301        C420   1.425       .  S
C303        H304   1.081       .  S
C308        C310   1.520       .  S
C308        C312   1.552       .  S
C308        C311   1.534       .  S
C308        C549   1.541       .  S
C309        C313   1.536       .  S
C309        C315   1.561       .  S
C309        C314   1.548       .  S
C309        C525   1.537       .  S
C310        C318   1.366       .  A
C310        C313   1.386       .  A
C311        C322   1.374       .  A
C311        C314   1.395       .  A
C312        C326   1.380       .  A
C312        C315   1.407       .  A
C313        C316   1.385       .  A
C314        C320   1.386       .  A
C315        C323   1.393       .  A
C316        N317   1.358       .  A
C316        H329   1.083       .  S
N317        C318   1.351       .  A
N317        C466   1.423       .  S
C318        H319   1.083       .  S
C320        N321   1.355       .  A
C320        H330   1.081       .  S
N321        C322   1.351       .  A
N321        C430   1.427       .  S
C322        H328   1.083       .  S
C323        N324   1.356       .  A
C323        H325   1.081       .  S
N324        C326   1.350       .  A
N324        C441   1.432       .  S
C326        H327   1.081       .  S
C331        C333   1.530   1_554  S
C331        C335   1.528   1_554  S
C331        C334   1.549   1_554  S
C331        C501   1.543       .  S
C332        C336   1.542       .  S
C332        C338   1.544       .  S
C332        C337   1.559       .  S
C332        C486   1.540       .  S
C333        C341   1.372   1_556  A
C333        C336   1.392       .  A
C334        C345   1.379   1_556  A
C334        C337   1.402       .  A
C335        C349   1.369   1_556  A
C335        C338   1.394       .  A
C336        C339   1.385       .  A
C337        C343   1.391       .  A
C338        C346   1.386       .  A
C339        N340   1.357       .  A
C339        H352   1.082       .  S
N340        C341   1.352   1_556  A
N340        C418   1.426       .  S
C341        H342   1.082       .  S
C343        N344   1.354       .  A
C343        H353   1.082       .  S
N344        C345   1.350   1_556  A
N344        C382   1.429       .  S
C345        H351   1.081       .  S
C346        N347   1.358       .  A
C346        H348   1.081       .  S
N347        C349   1.350   1_556  A
N347        C393   1.425       .  S
C349        H350   1.082       .  S
C354        C356   1.564       .  S
C354        C358   1.535       .  S
C354        C357   1.552       .  S
C354        C510   1.539       .  S
C355        C359   1.536       .  S
C355        C361   1.520       .  S
C355        C360   1.544       .  S
C355        C477   1.540       .  S
C356        C364   1.395       .  A
C356        C359   1.403       .  A
C357        C368   1.389       .  A
C357        C360   1.400       .  A
C358        C372   1.384       .  A
C358        C361   1.386       .  A
C359        C362   1.372       .  A
C360        C366   1.378       .  A
C361        C369   1.368       .  A
C362        N363   1.349       .  A
C362        H375   1.082       .  S
N363        C364   1.358       .  A
N363        C434   1.431       .  S
C364        H365   1.080       .  S
C366        N367   1.351       .  A
C366        H376   1.081       .  S
N367        C368   1.356       .  A
N367        C442   1.430       .  S
C368        H374   1.082       .  S
C369        N370   1.351       .  A
C369        H371   1.083       .  S
N370        C372   1.357       .  A
N370        C468   1.422       .  S
C372        H373   1.083       .  S
O377       Mg379   2.128       .  S
C378        H417   1.081       .  S
C378        O391   1.235       .  S
C378        O415   1.268       .  A
Mg379       O976   2.170   1_454  S
Mg379       O423   2.312   1_554  S
Mg379       O987   2.255   1_455  S
Mg379       O958   2.295   1_455  S
O380       Mg990   2.166   1_454  S
O380       Mg405   2.142       .  S
O380        C969   1.234       .  S
O381        C412   1.268       .  A
O381       Mg405   2.287       .  S
C382        O384   1.273       .  A
C382        O396   1.274       .  A
O383        C411   1.268       .  A
O384       Mg416   2.278       .  S
Mg385       O391   2.133       .  S
Mg385       O387   2.277   1_556  S
C386        O424   1.273       .  A
C386        O392   1.276       .  A
O387        C394   1.271       .  A
H388        C969   1.081       .  S
C389        O404   1.269   1_545  A
O390        C413   1.269       .  A
O390       Mg947   2.295       .  S
O391       Mg405   2.168   1_556  S
O392       Mg422   2.314   1_554  S
C393        O406   1.274       .  A
C393        O398   1.273       .  A
C394        O421   1.272       .  A
Mg395       O402   2.150       .  S
Mg395       O396   2.294   1_554  S
O397        C401   1.268       .  A
O398       Mg405   2.293   1_556  S
O399        C418   1.269       .  A
O400        C420   1.276       .  A
O400       Mg416   2.308   1_554  S
C401        H956   1.081       .  S
C401        O948   1.234       .  S
O402       Mg416   2.171   1_554  S
O402        C413   1.235       .  S
O403       Mg422   2.143       .  S
O404       Mg416   2.294       .  S
Mg405       O421   2.273       .  S
O406       Mg990   2.270   1_455  S
O408       Mg947   2.170   1_556  S
O408       Mg416   2.144       .  S
O408        C979   1.235       .  S
H409        C979   1.081       .  S
H410        C413   1.081       .  S
C411        H977   1.081   1_455  S
C411        O976   1.235   1_455  S
O415       Mg990   2.288   1_455  S
C418        O423   1.276       .  A
O419        C420   1.271       .  A
O419       Mg947   2.255       .  S
Mg422       O948   2.166   1_556  S
Mg422       O974   2.270       .  S
Mg422       O983   2.288       .  S
O425       Mg427   2.126       .  S
O425      Mg1001   2.165       .  S
O425       C1028   1.235       .  S
C426        H465   1.081       .  S
C426        O439   1.235       .  S
C426        O463   1.269       .  A
Mg427       O471   2.279       .  S
O428       Mg453   2.162       .  S
O429        C460   1.267   1_455  A
O429       Mg453   2.284       .  S
C430        O432   1.268       .  A
C430        O444   1.277       .  A
O431        C459   1.268       .  A
O431      Mg1001   2.288       .  S
O432       Mg464   2.250       .  S
Mg433       O993   2.165   1_455  S
Mg433       O439   2.140       .  S
Mg433       O999   2.288   1_455  S
Mg433      O1015   2.266   1_455  S
Mg433       O435   2.290       .  S
C434        O472   1.272       .  A
C434        O440   1.280       .  A
O435        C442   1.273       .  A
C437       H1030   1.081       .  S
C437       O1019   1.235       .  S
C437        O452   1.269       .  A
O438        C461   1.268       .  A
O439       Mg453   2.167       .  S
O440       Mg470   2.324       .  S
C441        O454   1.277       .  A
C441        O446   1.276       .  A
C442        O469   1.276       .  A
Mg443       O450   2.139       .  S
Mg443      O1019   2.171       .  S
Mg443       O444   2.315       .  S
Mg443      O1013   2.300       .  S
Mg443      O1040   2.272       .  S
O445        C449   1.270   1_565  A
O445      Mg1011   2.300   1_455  S
O446       Mg453   2.307       .  S
O447        C466   1.271       .  A
O447      Mg1001   2.266       .  S
O448        C468   1.272       .  A
O448       Mg464   2.284       .  S
O450       Mg464   2.170       .  S
O450        C461   1.235       .  S
O451      Mg1011   2.171   1_455  S
O451       Mg470   2.159       .  S
O451       C1005   1.235   1_455  S
O452       Mg464   2.296       .  S
Mg453       O469   2.293       .  S
H455       C1028   1.081       .  S
O456       Mg464   2.130       .  S
H458        C461   1.081       .  S
C460       H1023   1.081       .  S
C460        O993   1.235       .  S
H462       C1005   1.081   1_455  S
C466        O471   1.272       .  A
O467        C468   1.269       .  A
O472      Mg1011   2.272   1_455  S
C473        C474   1.399       .  A
C473        C478   1.400       .  A
C473        H483   1.084       .  S
C474        C475   1.406       .  A
C474        C479   1.480       .  S
C475        C476   1.397       .  A
C475        S480   1.805       .  S
C476        C477   1.411       .  A
C476        H481   1.079       .  S
C477        C478   1.429       .  A
C478        S482   1.810       .  S
C479        C484   1.403       .  A
C479        C488   1.399       .  A
S480        H496   1.406       .  S
S482        H493   1.397       .  S
C484        C485   1.398       .  A
C484        S489   1.809       .  S
C485        C486   1.412       .  A
C485        H490   1.075       .  S
C486        C487   1.429       .  A
C487        C488   1.402       .  A
C487        S491   1.809       .  S
C488        H492   1.084       .  S
S489        H494   1.407       .  S
S491        H495   1.397       .  S
C497        C498   1.400       .  A
C497        C502   1.402       .  A
C497        H507   1.084       .  S
C498        C499   1.408       .  A
C498        C503   1.484       .  S
C499        C500   1.396       .  A
C499        S504   1.805       .  S
C500        C501   1.410       .  A
C500        H505   1.076       .  S
C501        C502   1.430       .  A
C502        S506   1.811       .  S
C503        C508   1.405       .  A
C503        C512   1.398       .  A
S504        H520   1.406       .  S
S506        H517   1.395       .  S
C508        C509   1.402       .  A
C508        S513   1.808       .  S
C509        C510   1.411       .  A
C509        H514   1.075       .  S
C510        C511   1.430       .  A
C511        C512   1.400       .  A
C511        S515   1.811       .  S
C512        H516   1.084       .  S
S513        H518   1.407       .  S
S515        H519   1.395       .  S
C521        C522   1.398       .  A
C521        C526   1.398       .  A
C521        H531   1.084       .  S
C522        C523   1.408       .  A
C522        C527   1.482       .  S
C523        C524   1.399       .  A
C523        S528   1.805       .  S
C524        C525   1.410       .  A
C524        H529   1.078       .  S
C525        C526   1.430       .  A
C526        S530   1.810       .  S
C527        C532   1.406       .  A
C527        C536   1.399       .  A
S528        H544   1.406       .  S
S530        H541   1.397       .  S
C532        C533   1.398       .  A
C532        S537   1.809       .  S
C533        C534   1.409       .  A
C533        H538   1.075       .  S
C534        C535   1.432       .  A
C535        C536   1.402       .  A
C535        S539   1.812       .  S
C536        H540   1.084       .  S
S537        H542   1.407       .  S
S539        H543   1.396       .  S
C545        C546   1.400       .  A
C545        C550   1.402       .  A
C545        H555   1.084       .  S
C546        C547   1.409       .  A
C546        C551   1.484       .  S
C547        C548   1.395       .  A
C547        S552   1.805       .  S
C548        C549   1.408       .  A
C548        H553   1.076       .  S
C549        C550   1.432       .  A
C550        S554   1.813       .  S
C551        C556   1.406       .  A
C551        C560   1.398       .  A
S552        H568   1.407       .  S
S554        H565   1.395       .  S
C556        C557   1.403       .  A
C556        S561   1.808       .  S
C557        C558   1.411       .  A
C557        H562   1.075       .  S
C558        C559   1.430       .  A
C559        C560   1.398       .  A
C559        S563   1.812       .  S
C560        H564   1.084       .  S
S561        H566   1.407       .  S
S563        H567   1.395       .  S
C569        C571   1.549       .  S
C569        C573   1.554       .  S
C569        C572   1.543       .  S
C569        C842   1.539       .  S
C570        C574   1.550   1_556  S
C570        C576   1.527   1_556  S
C570        C575   1.528   1_556  S
C570        C818   1.542       .  S
C571        C579   1.387       .  A
C571        C574   1.400       .  A
C572        C583   1.385       .  A
C572        C575   1.392       .  A
C573        C587   1.391       .  A
C573        C576   1.396       .  A
C574        C577   1.381   1_554  A
C575        C581   1.369   1_554  A
C576        C584   1.369   1_554  A
C577        N578   1.352   1_556  A
C577        H590   1.082       .  S
N578        C579   1.355       .  A
N578        C670   1.430       .  S
C579        H580   1.081       .  S
C581        N582   1.351   1_556  A
C581        H591   1.082       .  S
N582        C583   1.358       .  A
N582        C678   1.425       .  S
C583        H589   1.082       .  S
C584        N585   1.349   1_556  A
C584        H586   1.082       .  S
N585        C587   1.358       .  A
N585        C704   1.425       .  S
C587        H588   1.081       .  S
C592        C594   1.520       .  S
C592        C596   1.552       .  S
C592        C595   1.534       .  S
C592        C833   1.541       .  S
C593        C597   1.536       .  S
C593        C599   1.561       .  S
C593        C598   1.548       .  S
C593        C809   1.537       .  S
C594        C602   1.366       .  A
C594        C597   1.386       .  A
C595        C606   1.374       .  A
C595        C598   1.395       .  A
C596        C610   1.380       .  A
C596        C599   1.407       .  A
C597        C600   1.385       .  A
C598        C604   1.386       .  A
C599        C607   1.393       .  A
C600        N601   1.358       .  A
C600        H613   1.083       .  S
N601        C602   1.351       .  A
N601        C750   1.423       .  S
C602        H603   1.083       .  S
C604        N605   1.355       .  A
C604        H614   1.081       .  S
N605        C606   1.351       .  A
N605        C714   1.427       .  S
C606        H612   1.083       .  S
C607        N608   1.356       .  A
C607        H609   1.081       .  S
N608        C610   1.350       .  A
N608        C725   1.432       .  S
C610        H611   1.081       .  S
C615        C617   1.530   1_554  S
C615        C619   1.528   1_554  S
C615        C618   1.549   1_554  S
C615        C785   1.543       .  S
C616        C620   1.542       .  S
C616        C622   1.544       .  S
C616        C621   1.559       .  S
C616        C770   1.540       .  S
C617        C625   1.372   1_556  A
C617        C620   1.392       .  A
C618        C629   1.379   1_556  A
C618        C621   1.402       .  A
C619        C633   1.369   1_556  A
C619        C622   1.394       .  A
C620        C623   1.385       .  A
C621        C627   1.391       .  A
C622        C630   1.386       .  A
C623        N624   1.357       .  A
C623        H636   1.082       .  S
N624        C625   1.352   1_556  A
N624        C702   1.426       .  S
C625        H626   1.082       .  S
C627        N628   1.354       .  A
C627        H637   1.082       .  S
N628        C629   1.350   1_556  A
N628        C666   1.429       .  S
C629        H635   1.081       .  S
C630        N631   1.358       .  A
C630        H632   1.081       .  S
N631        C633   1.350   1_556  A
N631        C677   1.425       .  S
C633        H634   1.082       .  S
C638        C640   1.564       .  S
C638        C642   1.535       .  S
C638        C641   1.552       .  S
C638        C794   1.539       .  S
C639        C643   1.536       .  S
C639        C645   1.520       .  S
C639        C644   1.544       .  S
C639        C761   1.540       .  S
C640        C648   1.395       .  A
C640        C643   1.403       .  A
C641        C652   1.389       .  A
C641        C644   1.400       .  A
C642        C656   1.384       .  A
C642        C645   1.386       .  A
C643        C646   1.372       .  A
C644        C650   1.378       .  A
C645        C653   1.368       .  A
C646        N647   1.349       .  A
C646        H659   1.082       .  S
N647        C648   1.358       .  A
N647        C718   1.431       .  S
C648        H649   1.080       .  S
C650        N651   1.351       .  A
C650        H660   1.081       .  S
N651        C652   1.356       .  A
N651        C726   1.430       .  S
C652        H658   1.082       .  S
C653        N654   1.351       .  A
C653        H655   1.083       .  S
N654        C656   1.357       .  A
N654        C752   1.422       .  S
C656        H657   1.083       .  S
O661       Mg663   2.128       .  S
O661       Mg953   2.164   1_554  S
O661        C980   1.235       .  S
C662        H701   1.081       .  S
C662        O675   1.235       .  S
C662        O699   1.268       .  A
Mg663       O707   2.312   1_554  S
O664       Mg689   2.142       .  S
O665        C696   1.268   1_545  A
O665       Mg689   2.287       .  S
C666        O668   1.273       .  A
C666        O680   1.274       .  A
O667        C695   1.268       .  A
O667       Mg953   2.291       .  S
O668       Mg700   2.278       .  S
Mg669       O945   2.164   1_546  S
Mg669       O675   2.133       .  S
Mg669       O951   2.291   1_545  S
Mg669       O967   2.254   1_545  S
Mg669       O671   2.277   1_556  S
C670        O708   1.273       .  A
C670        O676   1.276       .  A
O671        C678   1.271       .  A
C673        H982   1.081       .  S
C673        O971   1.235       .  S
C673        O688   1.269       .  A
O674        C697   1.269       .  A
O675       Mg689   2.168   1_556  S
O676       Mg706   2.314   1_554  S
C677        O690   1.274       .  A
C677        O682   1.273       .  A
C678        O705   1.272       .  A
Mg679       O686   2.150       .  S
Mg679       O971   2.165   1_554  S
Mg679       O680   2.294   1_554  S
Mg679       O965   2.290       .  S
Mg679       O992   2.275       .  S
O681        C685   1.268   1_655  A
O681       Mg963   2.290   1_545  S
O682       Mg689   2.293   1_556  S
O683        C702   1.269       .  A
O683       Mg953   2.254       .  S
O684        C704   1.276       .  A
O684       Mg700   2.308   1_554  S
O686       Mg700   2.171   1_554  S
O686        C697   1.235       .  S
O687       Mg963   2.165   1_546  S
O687       Mg706   2.143       .  S
O687        C957   1.235       .  S
O688       Mg700   2.294       .  S
Mg689       O705   2.273       .  S
H691        C980   1.081       .  S
O692       Mg700   2.144       .  S
H694        C697   1.081       .  S
C696        H975   1.081       .  S
C696        O945   1.235       .  S
H698        C957   1.081       .  S
C702        O707   1.276       .  A
O703        C704   1.271       .  A
O708       Mg963   2.275   1_545  S
O709       Mg711   2.126       .  S
C710        H749   1.081       .  S
C710        O723   1.235       .  S
C710        O747   1.269       .  A
Mg711      O1024   2.166   1_545  S
Mg711       O755   2.279       .  S
Mg711      O1035   2.255   1_545  S
Mg711      O1006   2.291   1_545  S
O712      Mg1038   2.165   1_545  S
O712       Mg737   2.162       .  S
O712       C1017   1.235       .  S
O713        C744   1.267       .  A
O713       Mg737   2.284       .  S
C714        O716   1.268       .  A
C714        O728   1.277       .  A
O715        C743   1.268   1_545  A
O716       Mg748   2.250       .  S
Mg717       O723   2.140       .  S
Mg717       O719   2.290       .  S
C718        O756   1.272       .  A
C718        O724   1.280       .  A
O719        C726   1.273       .  A
H720       C1017   1.081       .  S
C721        O736   1.269       .  A
O722        C745   1.268       .  A
O722       Mg995   2.291       .  S
O723       Mg737   2.167       .  S
O724       Mg754   2.324       .  S
C725        O738   1.277       .  A
C725        O730   1.276       .  A
C726        O753   1.276       .  A
Mg727       O734   2.139       .  S
Mg727       O728   2.315       .  S
O729        C733   1.270       .  A
O730       Mg737   2.307       .  S
O731        C750   1.271       .  A
O732        C752   1.272       .  A
O732       Mg748   2.284       .  S
C733       H1004   1.081       .  S
C733        O996   1.235       .  S
O734       Mg748   2.170       .  S
O734        C745   1.235       .  S
O735       Mg754   2.159       .  S
O736       Mg748   2.296       .  S
Mg737       O753   2.293       .  S
O738      Mg1038   2.297   1_545  S
O740       Mg995   2.166       .  S
O740       Mg748   2.130       .  S
O740       C1027   1.235       .  S
H741       C1027   1.081       .  S
H742        C745   1.081       .  S
C743       H1025   1.081       .  S
C743       O1024   1.235       .  S
O747      Mg1038   2.292   1_545  S
C750        O755   1.272       .  A
O751        C752   1.269       .  A
O751       Mg995   2.255       .  S
Mg754       O996   2.165       .  S
Mg754      O1022   2.297       .  S
Mg754      O1031   2.292       .  S
C757        C758   1.399       .  A
C757        C762   1.400       .  A
C757        H767   1.084       .  S
C758        C759   1.406       .  A
C758        C763   1.480       .  S
C759        C760   1.397       .  A
C759        S764   1.805       .  S
C760        C761   1.411       .  A
C760        H765   1.079       .  S
C761        C762   1.429       .  A
C762        S766   1.810       .  S
C763        C768   1.403       .  A
C763        C772   1.399       .  A
S764        H780   1.406       .  S
S766        H777   1.397       .  S
C768        C769   1.398       .  A
C768        S773   1.809       .  S
C769        C770   1.412       .  A
C769        H774   1.075       .  S
C770        C771   1.429       .  A
C771        C772   1.402       .  A
C771        S775   1.809       .  S
C772        H776   1.084       .  S
S773        H778   1.407       .  S
S775        H779   1.397       .  S
C781        C782   1.400       .  A
C781        C786   1.402       .  A
C781        H791   1.084       .  S
C782        C783   1.408       .  A
C782        C787   1.484       .  S
C783        C784   1.396       .  A
C783        S788   1.805       .  S
C784        C785   1.410       .  A
C784        H789   1.076       .  S
C785        C786   1.430       .  A
C786        S790   1.811       .  S
C787        C792   1.405       .  A
C787        C796   1.398       .  A
S788        H804   1.406       .  S
S790        H801   1.395       .  S
C792        C793   1.402       .  A
C792        S797   1.808       .  S
C793        C794   1.411       .  A
C793        H798   1.075       .  S
C794        C795   1.430       .  A
C795        C796   1.400       .  A
C795        S799   1.811       .  S
C796        H800   1.084       .  S
S797        H802   1.407       .  S
S799        H803   1.395       .  S
C805        C806   1.398       .  A
C805        C810   1.398       .  A
C805        H815   1.084       .  S
C806        C807   1.408       .  A
C806        C811   1.482       .  S
C807        C808   1.399       .  A
C807        S812   1.805       .  S
C808        C809   1.410       .  A
C808        H813   1.078       .  S
C809        C810   1.430       .  A
C810        S814   1.810       .  S
C811        C816   1.406       .  A
C811        C820   1.399       .  A
S812        H828   1.406       .  S
S814        H825   1.397       .  S
C816        C817   1.398       .  A
C816        S821   1.809       .  S
C817        C818   1.409       .  A
C817        H822   1.075       .  S
C818        C819   1.432       .  A
C819        C820   1.402       .  A
C819        S823   1.812       .  S
C820        H824   1.084       .  S
S821        H826   1.407       .  S
S823        H827   1.396       .  S
C829        C830   1.400       .  A
C829        C834   1.402       .  A
C829        H839   1.084       .  S
C830        C831   1.409       .  A
C830        C835   1.484       .  S
C831        C832   1.395       .  A
C831        S836   1.805       .  S
C832        C833   1.408       .  A
C832        H837   1.076       .  S
C833        C834   1.432       .  A
C834        S838   1.813       .  S
C835        C840   1.406       .  A
C835        C844   1.398       .  A
S836        H852   1.407       .  S
S838        H849   1.395       .  S
C840        C841   1.403       .  A
C840        S845   1.808       .  S
C841        C842   1.411       .  A
C841        H846   1.075       .  S
C842        C843   1.430       .  A
C843        C844   1.398       .  A
C843        S847   1.812       .  S
C844        H848   1.084       .  S
S845        H850   1.407       .  S
S847        H851   1.395       .  S
C853        C855   1.549       .  S
C853        C857   1.554       .  S
C853        C856   1.543       .  S
C853       C1126   1.539       .  S
C854        C858   1.550   1_556  S
C854        C860   1.527   1_556  S
C854        C859   1.528   1_556  S
C854       C1102   1.542       .  S
C855        C863   1.387       .  A
C855        C858   1.400       .  A
C856        C867   1.385       .  A
C856        C859   1.392       .  A
C857        C871   1.391       .  A
C857        C860   1.396       .  A
C858        C861   1.381   1_554  A
C859        C865   1.369   1_554  A
C860        C868   1.369   1_554  A
C861        N862   1.352   1_556  A
C861        H874   1.082       .  S
N862        C863   1.355       .  A
N862        C954   1.430       .  S
C863        H864   1.081       .  S
C865        N866   1.351   1_556  A
C865        H875   1.082       .  S
N866        C867   1.358       .  A
N866        C962   1.425       .  S
C867        H873   1.082       .  S
C868        N869   1.349   1_556  A
C868        H870   1.082       .  S
N869        C871   1.358       .  A
N869        C988   1.425       .  S
C871        H872   1.081       .  S
C876        C878   1.520       .  S
C876        C880   1.552       .  S
C876        C879   1.534       .  S
C876       C1117   1.541       .  S
C877        C881   1.536       .  S
C877        C883   1.561       .  S
C877        C882   1.548       .  S
C877       C1093   1.537       .  S
C878        C886   1.366       .  A
C878        C881   1.386       .  A
C879        C890   1.374       .  A
C879        C882   1.395       .  A
C880        C894   1.380       .  A
C880        C883   1.407       .  A
C881        C884   1.385       .  A
C882        C888   1.386       .  A
C883        C891   1.393       .  A
C884        N885   1.358       .  A
C884        H897   1.083       .  S
N885        C886   1.351       .  A
N885       C1034   1.423       .  S
C886        H887   1.083       .  S
C888        N889   1.355       .  A
C888        H898   1.081       .  S
N889        C890   1.351       .  A
N889        C998   1.427       .  S
C890        H896   1.083       .  S
C891        N892   1.356       .  A
C891        H893   1.081       .  S
N892        C894   1.350       .  A
N892       C1009   1.432       .  S
C894        H895   1.081       .  S
C899        C901   1.530   1_554  S
C899        C903   1.528   1_554  S
C899        C902   1.549   1_554  S
C899       C1069   1.543       .  S
C900        C904   1.542       .  S
C900        C906   1.544       .  S
C900        C905   1.559       .  S
C900       C1054   1.540       .  S
C901        C909   1.372   1_556  A
C901        C904   1.392       .  A
C902        C913   1.379   1_556  A
C902        C905   1.402       .  A
C903        C917   1.369   1_556  A
C903        C906   1.394       .  A
C904        C907   1.385       .  A
C905        C911   1.391       .  A
C906        C914   1.386       .  A
C907        N908   1.357       .  A
C907        H920   1.082       .  S
N908        C909   1.352   1_556  A
N908        C986   1.426       .  S
C909        H910   1.082       .  S
C911        N912   1.354       .  A
C911        H921   1.082       .  S
N912        C913   1.350   1_556  A
N912        C950   1.429       .  S
C913        H919   1.081       .  S
C914        N915   1.358       .  A
C914        H916   1.081       .  S
N915        C917   1.350   1_556  A
N915        C961   1.425       .  S
C917        H918   1.082       .  S
C922        C924   1.564       .  S
C922        C926   1.535       .  S
C922        C925   1.552       .  S
C922       C1078   1.539       .  S
C923        C927   1.536       .  S
C923        C929   1.520       .  S
C923        C928   1.544       .  S
C923       C1045   1.540       .  S
C924        C932   1.395       .  A
C924        C927   1.403       .  A
C925        C936   1.389       .  A
C925        C928   1.400       .  A
C926        C940   1.384       .  A
C926        C929   1.386       .  A
C927        C930   1.372       .  A
C928        C934   1.378       .  A
C929        C937   1.368       .  A
C930        N931   1.349       .  A
C930        H943   1.082       .  S
N931        C932   1.358       .  A
N931       C1002   1.431       .  S
C932        H933   1.080       .  S
C934        N935   1.351       .  A
C934        H944   1.081       .  S
N935        C936   1.356       .  A
N935       C1010   1.430       .  S
C936        H942   1.082       .  S
C937        N938   1.351       .  A
C937        H939   1.083       .  S
N938        C940   1.357       .  A
N938       C1036   1.422       .  S
C940        H941   1.083       .  S
O945       Mg947   2.128       .  S
C946        H985   1.081       .  S
C946        O959   1.235       .  S
C946        O983   1.268       .  A
Mg947       O991   2.312   1_554  S
O948       Mg973   2.142       .  S
O949        C980   1.268       .  A
O949       Mg973   2.287       .  S
C950        O952   1.273       .  A
C950        O964   1.274       .  A
O951        C979   1.268       .  A
O952       Mg984   2.278       .  S
Mg953       O959   2.133       .  S
Mg953       O955   2.277   1_556  S
C954        O992   1.273       .  A
C954        O960   1.276       .  A
O955        C962   1.271       .  A
C957        O972   1.269   1_545  A
O958        C981   1.269       .  A
O959       Mg973   2.168   1_556  S
O960       Mg990   2.314   1_554  S
C961        O974   1.274       .  A
C961        O966   1.273       .  A
C962        O989   1.272       .  A
Mg963       O970   2.150       .  S
Mg963       O964   2.294   1_554  S
O965        C969   1.268   1_655  A
O966       Mg973   2.293   1_556  S
O967        C986   1.269       .  A
O968        C988   1.276       .  A
O968       Mg984   2.308   1_554  S
O970       Mg984   2.171   1_554  S
O970        C981   1.235       .  S
O971       Mg990   2.143       .  S
O972       Mg984   2.294       .  S
Mg973       O989   2.273       .  S
O976       Mg984   2.144       .  S
H978        C981   1.081       .  S
C986        O991   1.276       .  A
O987        C988   1.271       .  A
O993       Mg995   2.126       .  S
C994       H1033   1.081       .  S
C994       O1007   1.235       .  S
C994       O1031   1.269       .  A
Mg995      O1039   2.279       .  S
O996      Mg1021   2.162       .  S
O997       C1028   1.267       .  A
O997      Mg1021   2.284       .  S
C998       O1000   1.268       .  A
C998       O1012   1.277       .  A
O999       C1027   1.268       .  A
O1000     Mg1032   2.250       .  S
Mg1001     O1007   2.140       .  S
Mg1001     O1003   2.290       .  S
C1002      O1040   1.272       .  A
C1002      O1008   1.280       .  A
O1003      C1010   1.273       .  A
C1005      O1020   1.269       .  A
O1006      C1029   1.268       .  A
O1007     Mg1021   2.167       .  S
O1008     Mg1038   2.324       .  S
C1009      O1022   1.277       .  A
C1009      O1014   1.276       .  A
C1010      O1037   1.276       .  A
Mg1011     O1018   2.139       .  S
Mg1011     O1012   2.315       .  S
O1013      C1017   1.270   1_565  A
O1014     Mg1021   2.307       .  S
O1015      C1034   1.271       .  A
O1016      C1036   1.272       .  A
O1016     Mg1032   2.284       .  S
O1018     Mg1032   2.170       .  S
O1018      C1029   1.235       .  S
O1019     Mg1038   2.159       .  S
O1020     Mg1032   2.296       .  S
Mg1021     O1037   2.293       .  S
O1024     Mg1032   2.130       .  S
H1026      C1029   1.081       .  S
C1034      O1039   1.272       .  A
O1035      C1036   1.269       .  A
C1041      C1042   1.399       .  A
C1041      C1046   1.400       .  A
C1041      H1051   1.084       .  S
C1042      C1043   1.406       .  A
C1042      C1047   1.480       .  S
C1043      C1044   1.397       .  A
C1043      S1048   1.805       .  S
C1044      C1045   1.411       .  A
C1044      H1049   1.079       .  S
C1045      C1046   1.429       .  A
C1046      S1050   1.810       .  S
C1047      C1052   1.403       .  A
C1047      C1056   1.399       .  A
S1048      H1064   1.406       .  S
S1050      H1061   1.397       .  S
C1052      C1053   1.398       .  A
C1052      S1057   1.809       .  S
C1053      C1054   1.412       .  A
C1053      H1058   1.075       .  S
C1054      C1055   1.429       .  A
C1055      C1056   1.402       .  A
C1055      S1059   1.809       .  S
C1056      H1060   1.084       .  S
S1057      H1062   1.407       .  S
S1059      H1063   1.397       .  S
C1065      C1066   1.400       .  A
C1065      C1070   1.402       .  A
C1065      H1075   1.084       .  S
C1066      C1067   1.408       .  A
C1066      C1071   1.484       .  S
C1067      C1068   1.396       .  A
C1067      S1072   1.805       .  S
C1068      C1069   1.410       .  A
C1068      H1073   1.076       .  S
C1069      C1070   1.430       .  A
C1070      S1074   1.811       .  S
C1071      C1076   1.405       .  A
C1071      C1080   1.398       .  A
S1072      H1088   1.406       .  S
S1074      H1085   1.395       .  S
C1076      C1077   1.402       .  A
C1076      S1081   1.808       .  S
C1077      C1078   1.411       .  A
C1077      H1082   1.075       .  S
C1078      C1079   1.430       .  A
C1079      C1080   1.400       .  A
C1079      S1083   1.811       .  S
C1080      H1084   1.084       .  S
S1081      H1086   1.407       .  S
S1083      H1087   1.395       .  S
C1089      C1090   1.398       .  A
C1089      C1094   1.398       .  A
C1089      H1099   1.084       .  S
C1090      C1091   1.408       .  A
C1090      C1095   1.482       .  S
C1091      C1092   1.399       .  A
C1091      S1096   1.805       .  S
C1092      C1093   1.410       .  A
C1092      H1097   1.078       .  S
C1093      C1094   1.430       .  A
C1094      S1098   1.810       .  S
C1095      C1100   1.406       .  A
C1095      C1104   1.399       .  A
S1096      H1112   1.406       .  S
S1098      H1109   1.397       .  S
C1100      C1101   1.398       .  A
C1100      S1105   1.809       .  S
C1101      C1102   1.409       .  A
C1101      H1106   1.075       .  S
C1102      C1103   1.432       .  A
C1103      C1104   1.402       .  A
C1103      S1107   1.812       .  S
C1104      H1108   1.084       .  S
S1105      H1110   1.407       .  S
S1107      H1111   1.396       .  S
C1113      C1114   1.400       .  A
C1113      C1118   1.402       .  A
C1113      H1123   1.084       .  S
C1114      C1115   1.409       .  A
C1114      C1119   1.484       .  S
C1115      C1116   1.395       .  A
C1115      S1120   1.805       .  S
C1116      C1117   1.408       .  A
C1116      H1121   1.076       .  S
C1117      C1118   1.432       .  A
C1118      S1122   1.813       .  S
C1119      C1124   1.406       .  A
C1119      C1128   1.398       .  A
S1120      H1136   1.407       .  S
S1122      H1133   1.395       .  S
C1124      C1125   1.403       .  A
C1124      S1129   1.808       .  S
C1125      C1126   1.411       .  A
C1125      H1130   1.075       .  S
C1126      C1127   1.430       .  A
C1127      C1128   1.398       .  A
C1127      S1131   1.812       .  S
C1128      H1132   1.084       .  S
S1129      H1134   1.407       .  S
S1131      H1135   1.395       .  S
