geometry optimzed in LAMMPS
_audit_creation_date              2020-12-01 
_audit_creation_method            'lammps2cif' 
_symmetry_space_group_name_H-M    'P1' 
_symmetry_Int_Tables_number       1 
_symmetry_cell_setting            triclinic 
loop_ 
_symmetry_equiv_pos_as_xyz 
  x,y,z 
_cell_length_a                    31.82757695 
_cell_length_b                    31.832625771461643 
_cell_length_c                    31.825696484909454 
_cell_angle_alpha                 89.83694334645841 
_cell_angle_beta                  90.01904554681141 
_cell_angle_gamma                 90.15710090474121 
loop_ 
_atom_site_label 
_atom_site_type_symbol 
_atom_site_fract_x 
_atom_site_fract_y 
_atom_site_fract_z 
_atom_site_charge 
C1          C  0.81526310  0.19217484  0.97690945     0.79300
N2          N  0.78211152  0.21842310  0.97727807    -0.79000
C3          C  0.75834329  0.22267597  0.01150465     0.81800
N4          N  0.76704518  0.20033884  0.04590764    -0.78900
C5          C  0.79915637  0.17280760  0.04653276     0.81900
N6          N  0.82470796  0.16846964  0.01192026    -0.80600
C7          C  0.67662762  0.29430657  0.97618437     0.79300
N8          N  0.70588001  0.26379122  0.97682226    -0.79000
C9          C  0.72573795  0.25348690  0.01224157     0.81800
N10         N  0.71745564  0.27432057  0.04757325    -0.78900
C11         C  0.68968006  0.30622684  0.04798333     0.81900
N12         N  0.66823374  0.31700209  0.01194193    -0.80600
C13         C  0.82861706  0.95602804  0.20631561     0.79300
N14         N  0.83367854  0.99154230  0.18199728    -0.79000
C15         C  0.81182941  0.02697032  0.19363244     0.81800
N16         N  0.78647885  0.02608061  0.22757654    -0.78900
C17         C  0.78132809  0.99092694  0.25000885     0.81900
N18         N  0.80186238  0.95621460  0.23914387    -0.80600
C19         C  0.71007916  0.02364996  0.33307351     0.79300
N20         N  0.74195035  0.02318435  0.30517637    -0.79000
C21         C  0.75002468  0.98922683  0.28223268     0.81800
N22         N  0.72574166  0.95516368  0.28616610    -0.78900
C23         C  0.69288609  0.95461892  0.31291870     0.81900
N24         N  0.68410562  0.98924099  0.33720586    -0.80600
O25         O  0.79687832  0.27362026  0.35295753    -0.75300
O26         O  0.82885923  0.39081898  0.34518414    -0.75300
O27         O  0.83153344  0.32970610  0.40735501    -0.75400
O28         O  0.79425285  0.33418018  0.29159347    -0.75400
O29         O  0.72959051  0.35080432  0.31262632    -0.75400
O30         O  0.76699259  0.34854496  0.42685583    -0.75300
O31         O  0.76415970  0.40743149  0.36620442    -0.75300
O32         O  0.73231097  0.29159110  0.37310816    -0.75400
Ni33       Ni  0.81539498  0.33160085  0.34871768     1.25400
Ni34       Ni  0.74627981  0.35044525  0.37066740     1.25400
C35         C  0.75918468  0.26335847  0.36346516     0.86900
C36         C  0.79994195  0.41808019  0.35110478     0.86800
C37         C  0.80387542  0.33543563  0.43602566     0.86800
C38         C  0.75563384  0.34250517  0.28317173     0.87000
O39         O  0.76595055  0.35149399  0.20935446    -0.75300
O40         O  0.72812705  0.34478583  0.09547053    -0.75300
O41         O  0.72842195  0.40499211  0.15402506    -0.75400
O42         O  0.76576200  0.29104640  0.15032443    -0.75400
O43         O  0.70223092  0.26958588  0.17080526    -0.75400
O44         O  0.66512563  0.38533175  0.17697938    -0.75300
O45         O  0.66454975  0.32333851  0.11597849    -0.75300
O46         O  0.70253470  0.33094878  0.23112207    -0.75400
Ni47       Ni  0.74899654  0.34900895  0.15134911     1.25400
Ni48       Ni  0.68110099  0.32670181  0.17432414     1.25400
C49         C  0.74063217  0.34179370  0.23913194     0.86900
C50         C  0.69172684  0.32990564  0.08698255     0.86800
C51         C  0.69240153  0.41406135  0.16926967     0.86800
C52         C  0.74039315  0.26139851  0.16036314     0.87000
O53         O  0.79452983  0.20998279  0.16942753    -0.75300
O54         O  0.83462181  0.09545655  0.17454805    -0.75300
O55         O  0.82988103  0.15708119  0.11295027    -0.75400
O56         O  0.79904711  0.14912391  0.23039869    -0.75400
O57         O  0.73467677  0.12781980  0.21254487    -0.75400
O58         O  0.76597465  0.13299952  0.09694132    -0.75300
O59         O  0.77023427  0.07382670  0.15709424    -0.75300
O60         O  0.73044943  0.18728156  0.15233279    -0.75400
Ni61       Ni  0.81703800  0.15353260  0.17230469     1.25400
Ni62       Ni  0.74836802  0.12948294  0.15387773     1.25400
C63         C  0.75583265  0.21745980  0.16059208     0.86900
C64         C  0.80756192  0.06595699  0.16982118     0.86800
C65         C  0.80102062  0.14942812  0.08592784     0.86800
C66         C  0.76152258  0.13805455  0.24066045     0.87000
O67         O  0.77577110  0.13033334  0.31389310    -0.75300
O68         O  0.74230157  0.13464766  0.42899511    -0.75300
O69         O  0.74418845  0.07472022  0.37060372    -0.75400
O70         O  0.77421736  0.19069732  0.37291279    -0.75400
O71         O  0.70863634  0.20761122  0.35509580    -0.75400
O72         O  0.67872342  0.08942952  0.35038864    -0.75300
O73         O  0.67664035  0.15177695  0.41151033    -0.75300
O74         O  0.71020558  0.14606487  0.29489106    -0.75400
Ni75       Ni  0.76111778  0.13180972  0.37247363     1.25400
Ni76       Ni  0.69094457  0.14913186  0.35248136     1.25400
C77         C  0.74855049  0.13794707  0.28526638     0.86900
C78         C  0.70564874  0.14757080  0.43910702     0.86800
C79         C  0.70849325  0.06300130  0.35633525     0.86800
C80         C  0.74660024  0.21846413  0.36403475     0.87000
C81         C  0.80638182  0.31211657  0.47548258     0.79300
N82         N  0.82830260  0.32293529  0.51126788    -0.79000
C83         C  0.82111538  0.29938621  0.54699153     0.81800
N84         N  0.79269352  0.26796364  0.54647815    -0.78900
C85         C  0.77238264  0.25776795  0.51134587     0.81900
N86         N  0.77942830  0.27940664  0.47610884    -0.80600
C87         C  0.70478830  0.17187067  0.47779682     0.79300
N88         N  0.73476015  0.20184991  0.47817587    -0.79000
C89         C  0.74125427  0.22543345  0.51205826     0.81800
N90         N  0.71727978  0.22011495  0.54600024    -0.78900
C91         C  0.68606790  0.19143828  0.54653612     0.81900
N92         N  0.67909843  0.16614730  0.51216435    -0.80600
O93         O  0.81065088  0.84998640  0.27227257    -0.75300
O94         O  0.92434968  0.84263170  0.23322831    -0.75300
O95         O  0.86742281  0.90424481  0.23774470    -0.75400
O96         O  0.86840149  0.78842744  0.26808210    -0.75400
O97         O  0.84770626  0.77146779  0.20336164    -0.75400
O98         O  0.84240060  0.88988826  0.17389589    -0.75300
O99         O  0.90268393  0.82717136  0.16840275    -0.75300
O100        O  0.78814148  0.83354470  0.20802683    -0.75400
Ni101      Ni  0.86867316  0.84712685  0.25479700     1.25400
Ni102      Ni  0.84462204  0.83009159  0.18586343     1.25400
C103        C  0.78050727  0.84227944  0.24666701     0.86900
C104        C  0.93209243  0.83058620  0.19568049     0.86800
C105        C  0.85102829  0.91626051  0.20308074     0.86800
C106        C  0.85807375  0.76067257  0.24099233     0.87000
O107        O  0.66564165  0.77214814  0.29829933    -0.75300
O108        O  0.67348142  0.88685413  0.33690414    -0.75300
O109        O  0.61105697  0.82617057  0.33526060    -0.75400
O110        O  0.72749133  0.83234232  0.29971316    -0.75400
O111        O  0.70718997  0.85287461  0.23584278    -0.75400
O112        O  0.59252383  0.84981046  0.27190886    -0.75300
O113        O  0.65402271  0.90808321  0.27294825    -0.75300
O114        O  0.64593143  0.79421908  0.23475306    -0.75400
Ni115      Ni  0.66996779  0.82875833  0.32001348     1.25400
Ni116      Ni  0.64897949  0.85222443  0.25190456     1.25400
C117        C  0.65511224  0.76428562  0.26011615     0.86900
C118        C  0.66827289  0.91609879  0.30970208     0.86800
C119        C  0.58273817  0.83427828  0.30775732     0.86800
C120        C  0.73636989  0.84281001  0.26164938     0.87000
O121        O  0.84854544  0.70697562  0.29269626    -0.75300
O122        O  0.84233290  0.59121963  0.32914585    -0.75300
O123        O  0.90491167  0.65223882  0.32561319    -0.75400
O124        O  0.78686659  0.64686974  0.29558254    -0.75400
O125        O  0.80408210  0.62857341  0.23023174    -0.75400
O126        O  0.91970393  0.62970951  0.26100373    -0.75300
O127        O  0.85818407  0.57200124  0.26370321    -0.75300
O128        O  0.86532804  0.68688554  0.22778677    -0.75400
Ni129      Ni  0.84523568  0.64985321  0.31332116     1.25400
Ni130      Ni  0.86266910  0.62836673  0.24368762     1.25400
C131        C  0.85733453  0.71601256  0.25429956     0.86900
C132        C  0.84565833  0.56285839  0.30088339     0.86800
C133        C  0.93146880  0.64495644  0.29624319     0.86800
C134        C  0.77627890  0.63782743  0.25762536     0.87000
O135        O  0.70288624  0.62986933  0.27112009    -0.75300
O136        O  0.58816390  0.63747155  0.23708890    -0.75300
O137        O  0.64544288  0.57658708  0.23656959    -0.75400
O138        O  0.64476945  0.69107719  0.27172891    -0.75400
O139        O  0.66280062  0.71112757  0.20699917    -0.75400
O140        O  0.66688771  0.59441470  0.17221323    -0.75300
O141        O  0.60638924  0.65718823  0.17224326    -0.75300
O142        O  0.72247592  0.64919564  0.20660256    -0.75400
Ni143      Ni  0.64444151  0.63287026  0.25609105     1.25400
Ni144      Ni  0.66516574  0.65351162  0.18693507     1.25400
C145        C  0.73174355  0.63889786  0.24456366     0.86900
C146        C  0.57855349  0.65201474  0.20085056     0.86800
C147        C  0.65972980  0.56646514  0.20046076     0.86800
C148        C  0.65394612  0.72013302  0.24539209     0.87000
C149        C  0.79968767  0.45714246  0.32695978     0.79300
N150        N  0.76869027  0.45776604  0.29808892    -0.79000
C151        C  0.76315630  0.49090387  0.27300273     0.81800
N152        N  0.78879214  0.52396468  0.27604953    -0.78900
C153        C  0.82068818  0.52442418  0.30390004     0.81900
N154        N  0.82699578  0.49064793  0.33032735    -0.80600
C155        C  0.68230702  0.52668093  0.20049719     0.79300
N156        N  0.67127735  0.49015375  0.18010710    -0.79000
C157        C  0.69143157  0.45373849  0.19200591     0.81800
N158        N  0.72004328  0.45446077  0.22324299    -0.78900
C159        C  0.73088815  0.49042863  0.24176914     0.81900
N160        N  0.71266074  0.52621800  0.23000768    -0.80600
C161        C  0.04100356  0.79253207  0.17370460     0.79300
N162        N  0.04022072  0.75942704  0.20019055    -0.79000
C163        C  0.00535526  0.74886653  0.22083619     0.81800
N164        N  0.97069103  0.77193410  0.21610354    -0.78900
C165        C  0.97046409  0.80617008  0.19102946     0.81900
N166        N  0.00606043  0.81750375  0.16909838    -0.80600
C167        C  0.97131249  0.66766254  0.29403165     0.79300
N168        N  0.00595681  0.66325997  0.31961654    -0.79000
C169        C  0.04128434  0.68636256  0.30960841     0.81800
N170        N  0.04105181  0.71232913  0.27605470    -0.78900
C171        C  0.00672206  0.71674413  0.25233188     0.81900
N172        N  0.97214342  0.69494823  0.26157577    -0.80600
C173        C  0.20669872  0.82548521  0.96197484     0.79300
N174        N  0.18125056  0.82995136  0.99659570    -0.79000
C175        C  0.19116872  0.80682529  0.03181841     0.81800
N176        N  0.22458218  0.78087356  0.03159262    -0.78900
C177        C  0.24813646  0.77638986  0.99723030     0.81900
N178        N  0.23898829  0.79819742  0.96266854    -0.80600
C179        C  0.32991649  0.70474973  0.03193493     0.79300
N180        N  0.30176443  0.73625081  0.03100223    -0.79000
C181        C  0.28027057  0.74515043  0.99621696     0.81800
N182        N  0.28590119  0.72205984  0.96174198    -0.78900
C183        C  0.31288143  0.68945713  0.96156759     0.81900
N184        N  0.33577512  0.67987212  0.99709224    -0.80600
O185        O  0.30449909  0.73026850  0.35943256    -0.75300
O186        O  0.41971147  0.76430031  0.35747494    -0.75300
O187        O  0.35846841  0.76556140  0.41530548    -0.75400
O188        O  0.36563139  0.72927978  0.30093339    -0.75400
O189        O  0.34737821  0.79366671  0.28019619    -0.75400
O190        O  0.33993528  0.83017928  0.39541123    -0.75300
O191        O  0.40273853  0.82846361  0.33501233    -0.75300
O192        O  0.28529933  0.79473511  0.33992904    -0.75400
Ni193      Ni  0.36295326  0.74538408  0.35923357     1.25400
Ni194      Ni  0.34334386  0.81428959  0.33707158     1.25400
C195        C  0.27575886  0.75655995  0.34958492     0.86900
C196        C  0.43038548  0.80016529  0.34263000     0.86800
C197        C  0.34452220  0.80220525  0.42399550     0.86800
C198        C  0.35707756  0.75550382  0.27156128     0.87000
O199        O  0.14351562  0.76434445  0.29471478    -0.75300
O200        O  0.14460592  0.73043116  0.40982490    -0.75300
O201        O  0.20130806  0.76702901  0.35660184    -0.75400
O202        O  0.08747487  0.72765813  0.34765413    -0.75400
O203        O  0.10917237  0.66348484  0.33014953    -0.75400
O204        O  0.22373361  0.70335092  0.33839902    -0.75300
O205        O  0.16924439  0.66708560  0.39331415    -0.75300
O206        O  0.16433090  0.70026675  0.27592886    -0.75400
Ni207      Ni  0.14324054  0.74931580  0.35307249     1.25400
Ni208      Ni  0.16724329  0.68104712  0.33395359     1.25400
C209        C  0.15393872  0.73812121  0.26621105     0.86900
C210        C  0.16065768  0.69524096  0.42073216     0.86800
C211        C  0.23145104  0.74173892  0.34826982     0.86800
C212        C  0.07971315  0.69049556  0.33434631     0.87000
O213        O  0.16357892  0.79118717  0.21391385    -0.75300
O214        O  0.16990596  0.83021476  0.09913041    -0.75300
O215        O  0.10728868  0.82496136  0.15965641    -0.75400
O216        O  0.22543716  0.79575519  0.15422753    -0.75400
O217        O  0.20830871  0.73084895  0.13416728    -0.75400
O218        O  0.09273238  0.76088278  0.13535916    -0.75300
O219        O  0.15413315  0.76521357  0.07819555    -0.75300
O220        O  0.14695999  0.72672873  0.19211872    -0.75400
Ni221      Ni  0.16698577  0.81309768  0.15731826     1.25400
Ni222      Ni  0.14971769  0.74394154  0.13400067     1.25400
C223        C  0.15478332  0.75257118  0.22193662     0.86900
C224        C  0.16645702  0.80267354  0.07006878     0.86800
C225        C  0.08085948  0.79564238  0.15140222     0.86800
C226        C  0.23607093  0.75808266  0.14429024     0.87000
O227        O  0.30972314  0.77164999  0.13764912    -0.75300
O228        O  0.42417007  0.73626544  0.14484635    -0.75300
O229        O  0.36694931  0.73866562  0.08351304    -0.75400
O230        O  0.36772460  0.76940470  0.19908280    -0.75400
O231        O  0.34889145  0.70415406  0.21666482    -0.75400
O232        O  0.34474361  0.67384223  0.09867209    -0.75300
O233        O  0.40490086  0.67085500  0.16156585    -0.75300
O234        O  0.28941898  0.70660498  0.15437923    -0.75400
Ni235      Ni  0.36805588  0.75600266  0.14046789     1.25400
Ni236      Ni  0.34642545  0.68629921  0.15827647     1.25400
C237        C  0.28055655  0.74495205  0.14540103     0.86900
C238        C  0.43320835  0.69922972  0.15764225     0.86800
C239        C  0.35221126  0.70312781  0.07192433     0.86800
C240        C  0.35818791  0.74211190  0.22707585     0.87000
C241        C  0.47047570  0.79994058  0.32018969     0.79300
N242        N  0.50665582  0.82185940  0.32986233    -0.79000
C243        C  0.54280042  0.81152619  0.30832389     0.81800
N244        N  0.54212226  0.78056840  0.27955364    -0.78900
C245        C  0.50654053  0.76046957  0.27017935     0.81900
N246        N  0.47104423  0.77039893  0.28997538    -0.80600
C247        C  0.47161820  0.69672131  0.18213003     0.79300
N248        N  0.50584817  0.67151763  0.17474783    -0.79000
C249        C  0.54022680  0.67666761  0.20043184     0.81800
N250        N  0.53996215  0.70591952  0.23097456    -0.78900
C251        C  0.50612329  0.72944313  0.23787173     0.81900
N252        N  0.47217937  0.72469553  0.21381710    -0.80600
O253        O  0.20650984  0.84646755  0.77812253    -0.75300
O254        O  0.17560855  0.84022123  0.89561848    -0.75300
O255        O  0.17099174  0.90098405  0.83336056    -0.75400
O256        O  0.21050484  0.78643585  0.83976366    -0.75400
O257        O  0.27474618  0.80874457  0.85676994    -0.75400
O258        O  0.23560232  0.92247074  0.85016382    -0.75300
O259        O  0.23956345  0.86452694  0.91113937    -0.75300
O260        O  0.27110165  0.86732762  0.79570955    -0.75400
Ni261      Ni  0.18839178  0.84290704  0.83624560     1.25400
Ni262      Ni  0.25724087  0.86675572  0.85428854     1.25400
C263        C  0.24416754  0.85701658  0.76774090     0.86900
C264        C  0.20452282  0.84834527  0.92243439     0.86800
C265        C  0.19817710  0.93040816  0.83769993     0.86800
C266        C  0.24910905  0.77869976  0.84866262     0.87000
O267        O  0.23057029  0.80498280  0.63543948    -0.75300
O268        O  0.26144373  0.92061947  0.63812758    -0.75300
O269        O  0.26216875  0.86113418  0.57950071    -0.75400
O270        O  0.22974168  0.86491124  0.69471677    -0.75400
O271        O  0.29527217  0.84847487  0.71324798    -0.75400
O272        O  0.32793052  0.84363718  0.59630095    -0.75300
O273        O  0.32692338  0.90531785  0.65787270    -0.75300
O274        O  0.29623812  0.78754471  0.65249427    -0.75400
Ni275      Ni  0.24397580  0.86371540  0.63611554     1.25400
Ni276      Ni  0.31420385  0.84579677  0.65545851     1.25400
C277        C  0.25813555  0.77704464  0.64388985     0.86900
C278        C  0.29740741  0.93201761  0.65201554     0.86800
C279        C  0.29868461  0.84820598  0.56901407     0.86800
C280        C  0.25702861  0.85688143  0.72312409     0.87000
O281        O  0.30072821  0.66407451  0.77817136    -0.75300
O282        O  0.33794741  0.67103422  0.89387118    -0.75300
O283        O  0.33665457  0.60902137  0.83294483    -0.75400
O284        O  0.30191796  0.72557189  0.83872022    -0.75400
O285        O  0.23783089  0.70537546  0.85871151    -0.75400
O286        O  0.27273211  0.59061443  0.85514253    -0.75300
O287        O  0.27377251  0.65110917  0.91396160    -0.75300
O288        O  0.23674622  0.64495190  0.79944376    -0.75400
Ni289      Ni  0.32181450  0.66796100  0.83533626     1.25400
Ni290      Ni  0.25331470  0.64710145  0.85774305     1.25400
C291        C  0.26245818  0.65402213  0.76976607     0.86900
C292        C  0.31040201  0.66533909  0.92270910     0.86800
C293        C  0.30873992  0.58082403  0.84025897     0.86800
C294        C  0.26388702  0.73452750  0.84900362     0.87000
O295        O  0.27196553  0.70389264  0.63531254    -0.75300
O296        O  0.23851379  0.58869198  0.64179814    -0.75300
O297        O  0.23692442  0.64759258  0.58130932    -0.75400
O298        O  0.27366351  0.64466851  0.69600585    -0.75400
O299        O  0.20920325  0.66236856  0.71666612    -0.75400
O300        O  0.17245860  0.66699109  0.60047223    -0.75300
O301        O  0.17403721  0.60609994  0.66289505    -0.75300
O302        O  0.20743116  0.72262310  0.65492532    -0.75400
Ni303      Ni  0.25725193  0.64531918  0.63767945     1.25400
Ni304      Ni  0.18827808  0.66502995  0.65929110     1.25400
C305        C  0.24526005  0.73239066  0.64457747     0.86900
C306        C  0.20259704  0.57852641  0.65684355     0.86800
C307        C  0.20020159  0.66099718  0.57190696     0.86800
C308        C  0.24766135  0.65347466  0.72540121     0.87000
C309        C  0.31935494  0.80420176  0.46204063     0.79300
N310        N  0.32576354  0.82965365  0.49634286    -0.79000
C311        C  0.29922458  0.82445284  0.53007726     0.81800
N312        N  0.26900059  0.79473487  0.52926016    -0.78900
C313        C  0.26321281  0.77076739  0.49552432     0.81900
N314        N  0.28802516  0.77561121  0.46210744    -0.80600
C315        C  0.19800438  0.68412067  0.53221487     0.79300
N316        N  0.22514034  0.71668322  0.53144987    -0.79000
C317        C  0.23224638  0.73824237  0.49614951     0.81800
N318        N  0.21189399  0.72804379  0.46103968    -0.78900
C319        C  0.18331706  0.69674638  0.46062095     0.81900
N320        N  0.17597561  0.67336790  0.49645422    -0.80600
O321        O  0.85904816  0.27099896  0.81558537    -0.75300
O322        O  0.85214150  0.23330172  0.92983395    -0.75300
O323        O  0.91342570  0.23696624  0.87220773    -0.75400
O324        O  0.79774927  0.26746650  0.87374288    -0.75400
O325        O  0.78047356  0.20248877  0.85407403    -0.75400
O326        O  0.89844923  0.17266937  0.84876992    -0.75300
O327        O  0.83590079  0.16824401  0.90947819    -0.75300
O328        O  0.84235148  0.20639659  0.79429190    -0.75400
Ni329      Ni  0.85641433  0.25416742  0.87380423     1.25400
Ni330      Ni  0.83884321  0.18489942  0.85109160     1.25400
C331        C  0.85122315  0.24494400  0.78596349     0.86900
C332        C  0.83969008  0.19595716  0.93835216     0.86800
C333        C  0.92506335  0.20197201  0.85643136     0.86800
C334        C  0.76989197  0.24022053  0.86382294     0.87000
O335        O  0.63773823  0.22717601  0.81030613    -0.75300
O336        O  0.63939060  0.25948477  0.92548262    -0.75300
O337        O  0.58150502  0.26048118  0.86473604    -0.75400
O338        O  0.69638835  0.22635892  0.87124013    -0.75400
O339        O  0.71600730  0.29132400  0.85344449    -0.75400
O340        O  0.59993080  0.32581886  0.84686155    -0.75300
O341        O  0.66089700  0.32428332  0.90923746    -0.75300
O342        O  0.65579793  0.29237780  0.79176603    -0.75400
Ni343      Ni  0.63787120  0.24138181  0.86878747     1.25400
Ni344      Ni  0.65867910  0.31102698  0.84984040     1.25400
C345        C  0.64679413  0.25421297  0.78189190     0.86900
C346        C  0.65394957  0.29528121  0.93643222     0.86800
C347        C  0.57196383  0.29715495  0.85127536     0.86800
C348        C  0.72528765  0.25317220  0.86288252     0.87000
O349        O  0.80373534  0.22965606  0.65213543    -0.75300
O350        O  0.91757413  0.26886419  0.65900898    -0.75300
O351        O  0.86226746  0.23272745  0.71317995    -0.75400
O352        O  0.85964388  0.26568883  0.59785306    -0.75400
O353        O  0.83551669  0.32930275  0.61413859    -0.75400
O354        O  0.84160899  0.29693819  0.73168733    -0.75300
O355        O  0.89625608  0.33316803  0.67654400    -0.75300
O356        O  0.78154066  0.29353946  0.66993826    -0.75400
Ni357      Ni  0.86177699  0.24728081  0.65468417     1.25400
Ni358      Ni  0.83812184  0.31575503  0.67356219     1.25400
C359        C  0.77372657  0.25504834  0.66054952     0.86900
C360        C  0.92556088  0.30604013  0.67209572     0.86800
C361        C  0.85201030  0.25912981  0.74158436     0.86800
C362        C  0.84374930  0.30091631  0.58685643     0.87000
O363        O  0.72034765  0.20186498  0.66944809    -0.75300
O364        O  0.60346137  0.16683125  0.67391601    -0.75300
O365        O  0.66642019  0.16573110  0.61373296    -0.75400
O366        O  0.65805823  0.20236296  0.72900489    -0.75400
O367        O  0.63904968  0.26644538  0.70801519    -0.75400
O368        O  0.64732935  0.23013180  0.59369762    -0.75300
O369        O  0.58573626  0.23072493  0.65124424    -0.75300
O370        O  0.70054422  0.26613367  0.64987781    -0.75400
Ni371      Ni  0.66259734  0.18168439  0.67210831     1.25400
Ni372      Ni  0.64227319  0.25032208  0.64976121     1.25400
C373        C  0.72951312  0.24009466  0.65971316     0.86900
C374        C  0.57551238  0.19477565  0.66618617     0.86800
C375        C  0.66143980  0.19353133  0.58502437     0.86800
C376        C  0.64785952  0.24043798  0.73750053     0.87000
C377        C  0.53348552  0.29864230  0.82667013     0.79300
N378        N  0.49984736  0.32516213  0.83196072    -0.79000
C379        C  0.46604451  0.32002671  0.80547877     0.81800
N380        N  0.46633906  0.28963398  0.77605657    -0.78900
C381        C  0.49953996  0.26464789  0.77131560     0.81900
N382        N  0.53287754  0.26930800  0.79622357    -0.80600
C383        C  0.46325848  0.18291689  0.70015666     0.79300
N384        N  0.46392051  0.21324973  0.72959923    -0.79000
C385        C  0.49950681  0.23305768  0.73951926     0.81800
N386        N  0.53504817  0.22345591  0.71960767    -0.78900
C387        C  0.53559573  0.19450826  0.68879436     0.81900
N388        N  0.49937955  0.17301155  0.67845511    -0.80600
C389        C  0.17684598  0.03996320  0.79999069     0.79300
N390        N  0.20402004  0.03957999  0.76756170    -0.79000
C391        C  0.22487103  0.00488919  0.75739127     0.81800
N392        N  0.21962024  0.96994771  0.78005288    -0.78900
C393        C  0.19390666  0.96925004  0.81367222     0.81900
N394        N  0.17168793  0.00468018  0.82467641    -0.80600
C395        C  0.29636429  0.97140176  0.67514791     0.79300
N396        N  0.32157921  0.00623417  0.66982583    -0.79000
C397        C  0.31226612  0.04129250  0.69331797     0.81800
N398        N  0.27955186  0.04078924  0.72020481    -0.78900
C399        C  0.25618318  0.00629228  0.72533556     0.81900
N400        N  0.26488669  0.97188285  0.70341160    -0.80600
C401        C  0.96473624  0.20454876  0.83361625     0.79300
N402        N  0.96549889  0.23740886  0.80680577    -0.79000
C403        C  0.99994262  0.24687437  0.78494526     0.81800
N404        N  0.03413346  0.22300306  0.78877504    -0.78900
C405        C  0.03440231  0.18909227  0.81424089     0.81900
N406        N  0.99927191  0.17883383  0.83745167    -0.80600
C407        C  0.96404127  0.30991894  0.69663150     0.79300
N408        N  0.99942154  0.33285452  0.68653553    -0.79000
C409        C  0.03414636  0.32810553  0.71190780     0.81800
N410        N  0.03333052  0.30066535  0.74423573    -0.78900
C411        C  0.99865370  0.27905902  0.75356169     0.81900
N412        N  0.96425378  0.28380255  0.73005922    -0.80600
O413        O  0.28354331  0.34699287  0.79868472    -0.75300
O414        O  0.39978712  0.33990533  0.83292605    -0.75300
O415        O  0.33907284  0.40231059  0.83245987    -0.75400
O416        O  0.34360895  0.28525863  0.79883939    -0.75400
O417        O  0.36149437  0.30471440  0.73389588    -0.75400
O418        O  0.36008817  0.41966031  0.76784091    -0.75300
O419        O  0.41800879  0.35875283  0.76783673    -0.75300
O420        O  0.30291956  0.36565012  0.73392779    -0.75400
Ni421      Ni  0.34098798  0.34310597  0.81827554     1.25400
Ni422      Ni  0.36151369  0.36308124  0.74888792     1.25400
C423        C  0.27410014  0.35689599  0.76065047     0.86900
C424        C  0.42765443  0.34470558  0.80429311     0.86800
C425        C  0.34587066  0.43004872  0.80393428     0.86800
C426        C  0.35248871  0.27588507  0.76054356     0.87000
O427        O  0.13623892  0.20769995  0.73787926    -0.75300
O428        O  0.13867280  0.09177806  0.76764888    -0.75300
O429        O  0.08083913  0.15261433  0.77234705    -0.75400
O430        O  0.19469456  0.14698955  0.73324852    -0.75400
O431        O  0.21693005  0.16293571  0.79770654    -0.75400
O432        O  0.10218748  0.16848837  0.83716735    -0.75300
O433        O  0.16276772  0.10624372  0.83183468    -0.75300
O434        O  0.15707531  0.22455819  0.80259480    -0.75400
Ni435      Ni  0.13663758  0.14896684  0.75080528     1.25400
Ni436      Ni  0.16034558  0.16597799  0.81986722     1.25400
C437        C  0.14669457  0.23537110  0.76500471     0.86900
C438        C  0.15453829  0.07982336  0.80260913     0.86800
C439        C  0.07286333  0.16471044  0.80984135     0.86800
C440        C  0.22473633  0.15464317  0.75897367     0.87000
O441        O  0.14033211  0.30916155  0.77820259    -0.75300
O442        O  0.14691665  0.42359152  0.74141504    -0.75300
O443        O  0.08581921  0.36591483  0.74487925    -0.75400
O444        O  0.20165902  0.36753229  0.77508308    -0.75400
O445        O  0.21862159  0.34846081  0.70990406    -0.75400
O446        O  0.10043894  0.34341078  0.68020577    -0.75300
O447        O  0.16312855  0.40403633  0.67614060    -0.75300
O448        O  0.15654341  0.28871307  0.71324447    -0.75400
Ni449      Ni  0.14289199  0.36749696  0.76190127     1.25400
Ni450      Ni  0.16012663  0.34560559  0.69232499     1.25400
C451        C  0.14782405  0.27991675  0.75169198     0.86900
C452        C  0.15940545  0.43251910  0.70419704     0.86800
C453        C  0.07397948  0.35071861  0.70965261     0.86800
C454        C  0.22940083  0.35789673  0.74772234     0.87000
O455        O  0.27832752  0.16438897  0.70616311    -0.75300
O456        O  0.39537005  0.16891944  0.67183870    -0.75300
O457        O  0.33206102  0.10907732  0.66941341    -0.75400
O458        O  0.34105824  0.22371321  0.70788022    -0.75400
O459        O  0.35979076  0.20167170  0.77173015    -0.75400
O460        O  0.35064563  0.08780209  0.73361314    -0.75300
O461        O  0.41272963  0.14503643  0.73543777    -0.75300
O462        O  0.29784945  0.14373307  0.77022844    -0.75400
Ni463      Ni  0.33618258  0.16714935  0.68632784     1.25400
Ni464      Ni  0.35613608  0.14358797  0.75471150     1.25400
C465        C  0.26899671  0.15405522  0.74419509     0.86900
C466        C  0.42317799  0.16051636  0.69979465     0.86800
C467        C  0.33684006  0.07981846  0.69667464     0.86800
C468        C  0.35123569  0.23161897  0.74613063     0.87000
C469        C  0.30933675  0.54123788  0.81726371     0.79300
N470        N  0.33180265  0.50545708  0.82677573    -0.79000
C471        C  0.32302450  0.46975209  0.80393302     0.81800
N472        N  0.29289075  0.47038288  0.77421080    -0.78900
C473        C  0.27222692  0.50558445  0.76507064     0.81900
N474        N  0.28056785  0.54072765  0.78619874    -0.80600
C475        C  0.18409975  0.47092735  0.70123100     0.79300
N476        N  0.17661232  0.50538251  0.67610174    -0.79000
C477        C  0.20260717  0.53966499  0.68102012     0.81800
N478        N  0.23329475  0.53919505  0.71020783    -0.78900
C479        C  0.24012984  0.50523873  0.73377197     0.81900
N480        N  0.21597029  0.47134070  0.72907759    -0.80600
loop_ 
_geom_bond_atom_site_label_1 
_geom_bond_atom_site_label_2 
_geom_bond_distance 
_geom_bond_site_symmetry_2 
_ccdc_geom_bond_type 
C1            N2   1.348       .  A
C1            N6   1.378   1_556  A
C1          C332   1.457       .  S
N2            C3   1.334   1_556  A
C3            N4   1.333       .  A
C3            C9   1.430       .  S
N4            C5   1.348       .  A
C5            N6   1.377       .  A
C5           C65   1.457       .  S
C7            N8   1.347       .  A
C7           N12   1.376   1_556  A
C7          C346   1.457       .  S
N8            C9   1.333   1_556  A
C9           N10   1.334       .  A
N10          C11   1.348       .  A
C11          N12   1.378       .  A
C11          C50   1.455       .  S
C13          N14   1.377       .  A
C13          N18   1.348       .  A
C13         C105   1.459       .  S
N14          C15   1.378   1_565  A
C15          N16   1.349       .  A
C15          C64   1.459       .  S
N16          C17   1.335   1_545  A
C17          N18   1.332       .  A
C17          C21   1.431       .  S
C19          N20   1.348       .  A
C19          N24   1.376   1_545  A
C19          C79   1.458       .  S
N20          C21   1.332   1_545  A
C21          N22   1.335       .  A
N22          C23   1.349       .  A
C23          N24   1.377       .  A
C23         C118   1.457       .  S
O25         Ni33   1.940       .  S
O25          C35   1.287       .  A
O26         Ni33   1.935       .  S
O26          C36   1.281       .  A
O27         Ni33   1.936       .  S
O27          C37   1.282       .  A
O28         Ni33   1.940       .  S
O28          C38   1.286       .  A
O29         Ni34   1.922       .  S
O29          C38   1.280       .  A
O30         Ni34   1.907       .  S
O30          C37   1.280       .  A
O31         Ni34   1.905       .  S
O31          C36   1.281       .  A
O32         Ni34   1.926       .  S
O32          C35   1.280       .  A
Ni33        Ni34   2.387       .  S
C35          C80   1.483       .  S
C36         C149   1.460       .  S
C37          C81   1.459       .  S
C38          C49   1.481       .  S
O39         Ni47   1.925       .  S
O39          C49   1.281       .  A
O40         Ni47   1.903       .  S
O40          C50   1.279       .  A
O41         Ni47   1.902       .  S
O41          C51   1.279       .  A
O42         Ni47   1.922       .  S
O42          C52   1.280       .  A
O43         Ni48   1.944       .  S
O43          C52   1.287       .  A
O44         Ni48   1.938       .  S
O44          C51   1.282       .  A
O45         Ni48   1.933       .  S
O45          C50   1.281       .  A
O46         Ni48   1.937       .  S
O46          C49   1.285       .  A
Ni47        Ni48   2.387       .  S
C51         C157   1.458       .  S
C52          C63   1.484       .  S
O53         Ni61   1.938       .  S
O53          C63   1.286       .  A
O54         Ni61   1.934       .  S
O54          C64   1.282       .  A
O55         Ni61   1.936       .  S
O55          C65   1.281       .  A
O56         Ni61   1.940       .  S
O56          C66   1.286       .  A
O57         Ni62   1.918       .  S
O57          C66   1.279       .  A
O58         Ni62   1.900       .  S
O58          C65   1.279       .  A
O59         Ni62   1.908       .  S
O59          C64   1.280       .  A
O60         Ni62   1.928       .  S
O60          C63   1.281       .  A
Ni61        Ni62   2.387       .  S
C66          C77   1.479       .  S
O67         Ni75   1.923       .  S
O67          C77   1.280       .  A
O68         Ni75   1.899       .  S
O68          C78   1.280       .  A
O69         Ni75   1.895       .  S
O69          C79   1.278       .  A
O70         Ni75   1.919       .  S
O70          C80   1.279       .  A
O71         Ni76   1.945       .  S
O71          C80   1.288       .  A
O72         Ni76   1.940       .  S
O72          C79   1.282       .  A
O73         Ni76   1.935       .  S
O73          C78   1.281       .  A
O74         Ni76   1.936       .  S
O74          C77   1.285       .  A
Ni75        Ni76   2.388       .  S
C78          C87   1.456       .  S
C81          N82   1.379       .  A
C81          N86   1.347       .  A
N82          C83   1.379       .  A
C83          N84   1.347       .  A
C83         C362   1.460       .  S
N84          C85   1.332       .  A
C85          N86   1.333       .  A
C85          C89   1.427       .  S
C87          N88   1.348       .  A
C87          N92   1.377       .  A
N88          C89   1.331       .  A
C89          N90   1.333       .  A
N90          C91   1.347       .  A
C91          N92   1.378       .  A
C91         C375   1.456       .  S
O93        Ni101   1.931       .  S
O93         C103   1.282       .  A
O94        Ni101   1.906       .  S
O94         C104   1.280       .  A
O95        Ni101   1.897       .  S
O95         C105   1.278       .  A
O96        Ni101   1.915       .  S
O96         C106   1.278       .  A
O97        Ni102   1.949       .  S
O97         C106   1.288       .  A
O98        Ni102   1.942       .  S
O98         C105   1.283       .  A
O99        Ni102   1.932       .  S
O99         C104   1.281       .  A
O100       Ni102   1.935       .  S
O100        C103   1.285       .  A
Ni101      Ni102   2.387       .  S
C103        C120   1.484       .  S
C104        C165   1.457       .  S
C106        C131   1.482       .  S
O107       Ni115   1.936       .  S
O107        C117   1.286       .  A
O108       Ni115   1.930       .  S
O108        C118   1.281       .  A
O109       Ni115   1.938       .  S
O109        C119   1.282       .  A
O110       Ni115   1.945       .  S
O110        C120   1.287       .  A
O111       Ni116   1.922       .  S
O111        C120   1.280       .  A
O112       Ni116   1.908       .  S
O112        C119   1.280       .  A
O113       Ni116   1.908       .  S
O113        C118   1.281       .  A
O114       Ni116   1.929       .  S
O114        C117   1.281       .  A
Ni115      Ni116   2.386       .  S
C117        C148   1.483       .  S
C119        C243   1.461       .  S
O121       Ni129   1.934       .  S
O121        C131   1.285       .  A
O122       Ni129   1.934       .  S
O122        C132   1.281       .  A
O123       Ni129   1.940       .  S
O123        C133   1.282       .  A
O124       Ni129   1.944       .  S
O124        C134   1.287       .  A
O125       Ni130   1.913       .  S
O125        C134   1.278       .  A
O126       Ni130   1.897       .  S
O126        C133   1.279       .  A
O127       Ni130   1.907       .  S
O127        C132   1.281       .  A
O128       Ni130   1.931       .  S
O128        C131   1.282       .  A
Ni129      Ni130   2.387       .  S
C132        C153   1.460       .  S
C133        C167   1.460       .  S
C134        C145   1.477       .  S
O135       Ni143   1.923       .  S
O135        C145   1.280       .  A
O136       Ni143   1.896       .  S
O136        C146   1.279       .  A
O137       Ni143   1.898       .  S
O137        C147   1.278       .  A
O138       Ni143   1.920       .  S
O138        C148   1.280       .  A
O139       Ni144   1.945       .  S
O139        C148   1.287       .  A
O140       Ni144   1.941       .  S
O140        C147   1.283       .  A
O141       Ni144   1.932       .  S
O141        C146   1.281       .  A
O142       Ni144   1.933       .  S
O142        C145   1.285       .  A
Ni143      Ni144   2.388       .  S
C146        C249   1.452       .  S
C147        C155   1.458       .  S
C149        N150   1.348       .  A
C149        N154   1.378       .  A
N150        C151   1.333       .  A
C151        N152   1.334       .  A
C151        C159   1.429       .  S
N152        C153   1.348       .  A
C153        N154   1.378       .  A
C155        N156   1.378       .  A
C155        N160   1.347       .  A
N156        C157   1.378       .  A
C157        N158   1.348       .  A
N158        C159   1.334       .  A
C159        N160   1.333       .  A
C161        N162   1.348       .  A
C161        N166   1.376       .  A
C161        C225   1.457       .  S
N162        C163   1.332       .  A
C163        N164   1.335   1_455  A
C163        C171   1.431       .  S
N164        C165   1.349       .  A
C165        N166   1.378   1_655  A
C167        N168   1.378   1_655  A
C167        N172   1.348       .  A
N168        C169   1.379       .  A
C169        N170   1.349       .  A
C169        C212   1.460       .  S
N170        C171   1.335       .  A
C171        N172   1.332   1_455  A
C173        N174   1.376       .  A
C173        N178   1.348       .  A
C173        C264   1.454       .  S
N174        C175   1.376   1_556  A
C175        N176   1.348       .  A
C175        C224   1.455       .  S
N176        C177   1.334   1_554  A
C177        N178   1.332       .  A
C177        C181   1.429       .  S
C179        N180   1.347       .  A
C179        N184   1.377   1_554  A
C179        C239   1.458       .  S
N180        C181   1.331   1_554  A
C181        N182   1.335       .  A
N182        C183   1.349       .  A
C183        N184   1.379       .  A
C183        C292   1.459       .  S
O185       Ni193   1.920       .  S
O185        C195   1.280       .  A
O186       Ni193   1.903       .  S
O186        C196   1.279       .  A
O187       Ni193   1.904       .  S
O187        C197   1.280       .  A
O188       Ni193   1.928       .  S
O188        C198   1.281       .  A
O189       Ni194   1.932       .  S
O189        C198   1.285       .  A
O190       Ni194   1.929       .  S
O190        C197   1.280       .  A
O191       Ni194   1.943       .  S
O191        C196   1.284       .  A
O192       Ni194   1.950       .  S
O192        C195   1.288       .  A
Ni193      Ni194   2.387       .  S
C195        C211   1.486       .  S
C196        C241   1.462       .  S
C197        C309   1.454       .  S
C198        C240   1.480       .  S
O199       Ni207   1.917       .  S
O199        C209   1.279       .  A
O200       Ni207   1.902       .  S
O200        C210   1.280       .  A
O201       Ni207   1.934       .  S
O201        C211   1.282       .  A
O202       Ni207   1.910       .  S
O202        C212   1.281       .  A
O203       Ni208   1.933       .  S
O203        C212   1.281       .  A
O204       Ni208   1.937       .  S
O204        C211   1.286       .  A
O205       Ni208   1.941       .  S
O205        C210   1.283       .  A
O206       Ni208   1.946       .  S
O206        C209   1.287       .  A
Ni207      Ni208   2.386       .  S
C209        C223   1.481       .  S
C210        C319   1.461       .  S
O213       Ni221   1.933       .  S
O213        C223   1.285       .  A
O214       Ni221   1.931       .  S
O214        C224   1.281       .  A
O215       Ni221   1.940       .  S
O215        C225   1.282       .  A
O216       Ni221   1.945       .  S
O216        C226   1.287       .  A
O217       Ni222   1.912       .  S
O217        C226   1.278       .  A
O218       Ni222   1.894       .  S
O218        C225   1.278       .  A
O219       Ni222   1.904       .  S
O219        C224   1.280       .  A
O220       Ni222   1.930       .  S
O220        C223   1.282       .  A
Ni221      Ni222   2.388       .  S
C226        C237   1.478       .  S
O227       Ni235   1.926       .  S
O227        C237   1.280       .  A
O228       Ni235   1.900       .  S
O228        C238   1.280       .  A
O229       Ni235   1.897       .  S
O229        C239   1.279       .  A
O230       Ni235   1.915       .  S
O230        C240   1.279       .  A
O231       Ni236   1.946       .  S
O231        C240   1.287       .  A
O232       Ni236   1.940       .  S
O232        C239   1.282       .  A
O233       Ni236   1.929       .  S
O233        C238   1.280       .  A
O234       Ni236   1.932       .  S
O234        C237   1.285       .  A
Ni235      Ni236   2.388       .  S
C238        C247   1.452       .  S
C241        N242   1.380       .  A
C241        N246   1.347       .  A
N242        C243   1.380       .  A
C243        N244   1.347       .  A
N244        C245   1.333       .  A
C245        N246   1.333       .  A
C245        C251   1.428       .  S
C247        N248   1.375       .  A
C247        N252   1.347       .  A
N248        C249   1.375       .  A
C249        N250   1.348       .  A
N250        C251   1.332       .  A
C251        N252   1.332       .  A
O253       Ni261   1.941       .  S
O253        C263   1.287       .  A
O254       Ni261   1.935       .  S
O254        C264   1.281       .  A
O255       Ni261   1.933       .  S
O255        C265   1.281       .  A
O256       Ni261   1.935       .  S
O256        C266   1.285       .  A
O257       Ni262   1.932       .  S
O257        C266   1.282       .  A
O258       Ni262   1.908       .  S
O258        C265   1.281       .  A
O259       Ni262   1.896       .  S
O259        C264   1.278       .  A
O260       Ni262   1.916       .  S
O260        C263   1.278       .  A
Ni261      Ni262   2.388       .  S
C263        C280   1.478       .  S
C265        C393   1.459       .  S
C266        C294   1.484       .  S
O267       Ni275   1.917       .  S
O267        C277   1.279       .  A
O268       Ni275   1.895       .  S
O268        C278   1.279       .  A
O269       Ni275   1.895       .  S
O269        C279   1.279       .  A
O270       Ni275   1.920       .  S
O270        C280   1.279       .  A
O271       Ni276   1.938       .  S
O271        C280   1.286       .  A
O272       Ni276   1.934       .  S
O272        C279   1.281       .  A
O273       Ni276   1.938       .  S
O273        C278   1.282       .  A
O274       Ni276   1.942       .  S
O274        C277   1.287       .  A
Ni275      Ni276   2.388       .  S
C277        C305   1.478       .  S
C278        C395   1.456       .  S
C279        C311   1.454       .  S
O281       Ni289   1.943       .  S
O281        C291   1.287       .  A
O282       Ni289   1.935       .  S
O282        C292   1.282       .  A
O283       Ni289   1.938       .  S
O283        C293   1.282       .  A
O284       Ni289   1.945       .  S
O284        C294   1.287       .  A
O285       Ni290   1.921       .  S
O285        C294   1.280       .  A
O286       Ni290   1.905       .  S
O286        C293   1.280       .  A
O287       Ni290   1.908       .  S
O287        C292   1.280       .  A
O288       Ni290   1.930       .  S
O288        C291   1.282       .  A
Ni289      Ni290   2.386       .  S
C291        C308   1.488       .  S
C293        C469   1.459       .  S
O295       Ni303   1.922       .  S
O295        C305   1.280       .  A
O296       Ni303   1.901       .  S
O296        C306   1.280       .  A
O297       Ni303   1.908       .  S
O297        C307   1.280       .  A
O298       Ni303   1.928       .  S
O298        C308   1.281       .  A
O299       Ni304   1.945       .  S
O299        C308   1.287       .  A
O300       Ni304   1.939       .  S
O300        C307   1.283       .  A
O301       Ni304   1.932       .  S
O301        C306   1.280       .  A
O302       Ni304   1.935       .  S
O302        C305   1.285       .  A
Ni303      Ni304   2.387       .  S
C306        C477   1.455       .  S
C307        C315   1.462       .  S
C309        N310   1.376       .  A
C309        N314   1.348       .  A
N310        C311   1.376       .  A
C311        N312   1.348       .  A
N312        C313   1.331       .  A
C313        N314   1.333       .  A
C313        C317   1.428       .  S
C315        N316   1.348       .  A
C315        N320   1.380       .  A
N316        C317   1.334       .  A
C317        N318   1.332       .  A
N318        C319   1.347       .  A
C319        N320   1.380       .  A
O321       Ni329   1.929       .  S
O321        C331   1.281       .  A
O322       Ni329   1.906       .  S
O322        C332   1.280       .  A
O323       Ni329   1.898       .  S
O323        C333   1.279       .  A
O324       Ni329   1.916       .  S
O324        C334   1.279       .  A
O325       Ni330   1.944       .  S
O325        C334   1.287       .  A
O326       Ni330   1.939       .  S
O326        C333   1.282       .  A
O327       Ni330   1.933       .  S
O327        C332   1.281       .  A
O328       Ni330   1.934       .  S
O328        C331   1.285       .  A
Ni329      Ni330   2.387       .  S
C331        C361   1.482       .  S
C333        C401   1.459       .  S
C334        C348   1.480       .  S
O335       Ni343   1.917       .  S
O335        C345   1.279       .  A
O336       Ni343   1.896       .  S
O336        C346   1.278       .  A
O337       Ni343   1.900       .  S
O337        C347   1.280       .  A
O338       Ni343   1.926       .  S
O338        C348   1.281       .  A
O339       Ni344   1.934       .  S
O339        C348   1.285       .  A
O340       Ni344   1.932       .  S
O340        C347   1.280       .  A
O341       Ni344   1.939       .  S
O341        C346   1.282       .  A
O342       Ni344   1.945       .  S
O342        C345   1.287       .  A
Ni343      Ni344   2.388       .  S
C345        C376   1.481       .  S
C347        C377   1.454       .  S
O349       Ni357   1.931       .  S
O349        C359   1.282       .  A
O350       Ni357   1.907       .  S
O350        C360   1.280       .  A
O351       Ni357   1.917       .  S
O351        C361   1.279       .  A
O352       Ni357   1.901       .  S
O352        C362   1.279       .  A
O353       Ni358   1.940       .  S
O353        C362   1.283       .  A
O354       Ni358   1.946       .  S
O354        C361   1.287       .  A
O355       Ni358   1.932       .  S
O355        C360   1.281       .  A
O356       Ni358   1.936       .  S
O356        C359   1.286       .  A
Ni357      Ni358   2.387       .  S
C359        C373   1.485       .  S
C360        C407   1.457       .  S
O363       Ni371   1.947       .  S
O363        C373   1.288       .  A
O364       Ni371   1.940       .  S
O364        C374   1.283       .  A
O365       Ni371   1.931       .  S
O365        C375   1.280       .  A
O366       Ni371   1.934       .  S
O366        C376   1.285       .  A
O367       Ni372   1.928       .  S
O367        C376   1.281       .  A
O368       Ni372   1.905       .  S
O368        C375   1.281       .  A
O369       Ni372   1.903       .  S
O369        C374   1.279       .  A
O370       Ni372   1.920       .  S
O370        C373   1.280       .  A
Ni371      Ni372   2.387       .  S
C374        C387   1.460       .  S
C377        N378   1.376       .  A
C377        N382   1.348       .  A
N378        C379   1.376       .  A
C379        N380   1.348       .  A
C379        C424   1.455       .  S
N380        C381   1.333       .  A
C381        N382   1.332       .  A
C381        C385   1.429       .  S
C383        N384   1.348       .  A
C383        N388   1.379       .  A
C383        C466   1.460       .  S
N384        C385   1.333       .  A
C385        N386   1.333       .  A
N386        C387   1.348       .  A
C387        N388   1.379       .  A
C389        N390   1.347       .  A
C389        N394   1.378       .  A
C389        C438   1.458       .  S
N390        C391   1.331       .  A
C391        N392   1.334   1_545  A
C391        C399   1.427       .  S
N392        C393   1.347       .  A
C393        N394   1.379   1_565  A
C395        N396   1.377   1_565  A
C395        N400   1.347       .  A
N396        C397   1.378       .  A
C397        N398   1.348       .  A
C397        C467   1.457       .  S
N398        C399   1.334       .  A
C399        N400   1.330   1_545  A
C401        N402   1.348       .  A
C401        N406   1.377       .  A
N402        C403   1.332       .  A
C403        N404   1.334   1_655  A
C403        C411   1.429       .  S
N404        C405   1.348       .  A
C405        N406   1.378   1_455  A
C405        C439   1.458       .  S
C407        N408   1.378       .  A
C407        N412   1.348       .  A
N408        C409   1.377   1_655  A
C409        N410   1.348       .  A
C409        C453   1.458       .  S
N410        C411   1.332   1_455  A
C411        N412   1.334       .  A
O413       Ni421   1.936       .  S
O413        C423   1.286       .  A
O414       Ni421   1.931       .  S
O414        C424   1.280       .  A
O415       Ni421   1.940       .  S
O415        C425   1.283       .  A
O416       Ni421   1.946       .  S
O416        C426   1.287       .  A
O417       Ni422   1.920       .  S
O417        C426   1.280       .  A
O418       Ni422   1.902       .  S
O418        C425   1.279       .  A
O419       Ni422   1.902       .  S
O419        C424   1.280       .  A
O420       Ni422   1.926       .  S
O420        C423   1.281       .  A
Ni421      Ni422   2.387       .  S
C423        C454   1.481       .  S
C425        C471   1.460       .  S
C426        C468   1.484       .  S
O427       Ni435   1.913       .  S
O427        C437   1.278       .  A
O428       Ni435   1.898       .  S
O428        C438   1.279       .  A
O429       Ni435   1.908       .  S
O429        C439   1.281       .  A
O430       Ni435   1.932       .  S
O430        C440   1.282       .  A
O431       Ni436   1.937       .  S
O431        C440   1.286       .  A
O432       Ni436   1.933       .  S
O432        C439   1.281       .  A
O433       Ni436   1.940       .  S
O433        C438   1.282       .  A
O434       Ni436   1.946       .  S
O434        C437   1.287       .  A
Ni435      Ni436   2.387       .  S
C437        C451   1.479       .  S
C440        C465   1.485       .  S
O441       Ni449   1.928       .  S
O441        C451   1.281       .  A
O442       Ni449   1.903       .  S
O442        C452   1.280       .  A
O443       Ni449   1.896       .  S
O443        C453   1.279       .  A
O444       Ni449   1.917       .  S
O444        C454   1.279       .  A
O445       Ni450   1.946       .  S
O445        C454   1.288       .  A
O446       Ni450   1.939       .  S
O446        C453   1.282       .  A
O447       Ni450   1.931       .  S
O447        C452   1.280       .  A
O448       Ni450   1.931       .  S
O448        C451   1.285       .  A
Ni449      Ni450   2.388       .  S
C452        C475   1.455       .  S
O455       Ni463   1.948       .  S
O455        C465   1.288       .  A
O456       Ni463   1.940       .  S
O456        C466   1.283       .  A
O457       Ni463   1.931       .  S
O457        C467   1.280       .  A
O458       Ni463   1.934       .  S
O458        C468   1.285       .  A
O459       Ni464   1.931       .  S
O459        C468   1.282       .  A
O460       Ni464   1.908       .  S
O460        C467   1.281       .  A
O461       Ni464   1.903       .  S
O461        C466   1.279       .  A
O462       Ni464   1.920       .  S
O462        C465   1.280       .  A
Ni463      Ni464   2.386       .  S
C469        N470   1.379       .  A
C469        N474   1.347       .  A
N470        C471   1.379       .  A
C471        N472   1.347       .  A
N472        C473   1.332       .  A
C473        N474   1.333       .  A
C473        C479   1.427       .  S
C475        N476   1.377       .  A
C475        N480   1.347       .  A
N476        C477   1.377       .  A
C477        N478   1.348       .  A
N478        C479   1.332       .  A
C479        N480   1.332       .  A
