geometry optimzed in LAMMPS
_audit_creation_date              2020-12-01 
_audit_creation_method            'lammps2cif' 
_symmetry_space_group_name_H-M    'P1' 
_symmetry_Int_Tables_number       1 
_symmetry_cell_setting            triclinic 
loop_ 
_symmetry_equiv_pos_as_xyz 
  x,y,z 
_cell_length_a                    48.26214601 
_cell_length_b                    48.26031665345126 
_cell_length_c                    48.2640303118706 
_cell_angle_alpha                 89.97305225759872 
_cell_angle_beta                  89.94925968824896 
_cell_angle_gamma                 89.93686038124793 
loop_ 
_atom_site_label 
_atom_site_type_symbol 
_atom_site_fract_x 
_atom_site_fract_y 
_atom_site_fract_z 
_atom_site_charge 
N1          N  0.76771449  0.21084084  0.45158135     0.00000
C2          C  0.75618835  0.19597031  0.43011004     0.02600
C3          C  0.74092022  0.17430296  0.44096696    -0.20300
C4          C  0.74470553  0.17421440  0.46909054    -0.20500
C5          C  0.76170211  0.19624606  0.47529710     0.02500
H6          H  0.73162404  0.15751537  0.42929471     0.16300
H7          H  0.73870881  0.15767519  0.48302531     0.16300
N8          N  0.77723606  0.23897928  0.45179882     0.00000
C9          C  0.79030727  0.25359616  0.43108528     0.02600
C10         C  0.80564726  0.27472584  0.44286745    -0.20300
C11         C  0.80020749  0.27489646  0.47071144    -0.20500
C12         C  0.78228041  0.25335068  0.47575834     0.02500
H13         H  0.81593501  0.29136846  0.43180675     0.16300
H14         H  0.80582867  0.29119219  0.48505281     0.16300
N15         N  0.76391967  0.23762334  0.52258085     0.00000
C16         C  0.74272933  0.24583652  0.53960949     0.02600
C17         C  0.72997699  0.26888883  0.52830084    -0.20300
C18         C  0.74296228  0.27443526  0.50343649    -0.20500
C19         C  0.76322485  0.25451015  0.50011119     0.02500
H20         H  0.71258132  0.28013440  0.53689752     0.16300
H21         H  0.73786086  0.29090620  0.48912286     0.16300
N22         N  0.77879848  0.21252508  0.52280470     0.00000
C23         C  0.79905629  0.20398008  0.54079020     0.02600
C24         C  0.81113527  0.18008753  0.53054832    -0.20300
C25         C  0.79880726  0.17439534  0.50539968    -0.20500
C26         C  0.77957687  0.19506586  0.50069870     0.02500
H27         H  0.82787384  0.16849397  0.53991068     0.16300
H28         H  0.80380362  0.15736668  0.49171077     0.16300
N29         N  0.76200087  0.24125856  0.95333168     0.00000
C30         C  0.74700038  0.25302951  0.93223813     0.02600
C31         C  0.72685085  0.27006142  0.94343678    -0.20300
C32         C  0.72773345  0.26702145  0.97166657    -0.20500
C33         C  0.74876288  0.24856880  0.97743458     0.02500
H34         H  0.71013744  0.28001240  0.93217346     0.16300
H35         H  0.71205212  0.27424109  0.98602600     0.16300
N36         N  0.78891552  0.22875780  0.95227379     0.00000
C37         C  0.80112606  0.21471540  0.93075577     0.02600
C38         C  0.82018455  0.19614845  0.94154573    -0.20300
C39         C  0.82209070  0.20094104  0.96948065    -0.20500
C40         C  0.80333610  0.22151042  0.97547331     0.02500
H41         H  0.83509402  0.18415968  0.92973209     0.16300
H42         H  0.83800608  0.19295790  0.98312640     0.16300
N43         N  0.76517844  0.22797654  0.02331350     0.00000
C44         C  0.75610373  0.20715316  0.04022663     0.02600
C45         C  0.73068221  0.19791054  0.03085963    -0.20300
C46         C  0.72456542  0.21259676  0.00708931    -0.20500
C47         C  0.74649915  0.23036307  0.00244968     0.02500
H48         H  0.71836878  0.18141643  0.03971624     0.16300
H49         H  0.70659361  0.20983063  0.99402132     0.16300
N50         N  0.79137963  0.24062987  0.02260356     0.00000
C51         C  0.79999015  0.26285865  0.03781230     0.02600
C52         C  0.82235841  0.27523930  0.02488326    -0.20300
C53         C  0.82704655  0.26085005  0.00063672    -0.20500
C54         C  0.80743532  0.24009002  0.99962800     0.02500
H55         H  0.83346724  0.29340399  0.03182986     0.16300
H56         H  0.84230155  0.26570529  0.98494597     0.16300
N57         N  0.78769125  0.94572440  0.22866660     0.00000
C58         C  0.80048007  0.92374037  0.21586068     0.02600
C59         C  0.81946052  0.93385455  0.19687217    -0.20300
C60         C  0.82062106  0.96205391  0.19995816    -0.20500
C61         C  0.80157525  0.96889622  0.22001744     0.02500
H62         H  0.83471036  0.92169624  0.18566748     0.16300
H63         H  0.83627865  0.97554789  0.19124753     0.16300
N64         N  0.76048220  0.94677798  0.24058878     0.00000
C65         C  0.74625003  0.92644414  0.25459336     0.02600
C66         C  0.72581019  0.93865954  0.27058262    -0.20300
C67         C  0.72565649  0.96643436  0.26470393    -0.20500
C68         C  0.74647907  0.97097446  0.24575775     0.02500
H69         H  0.70956144  0.92791826  0.28179629     0.16300
H70         H  0.70970507  0.98102352  0.27076037     0.16300
N71         N  0.78814409  0.01641924  0.23808452     0.00000
C72         C  0.79727765  0.03310967  0.25897494     0.02600
C73         C  0.82152487  0.02226025  0.26973836    -0.20300
C74         C  0.82669230  0.99772703  0.25593547    -0.20500
C75         C  0.80539984  0.99428480  0.23718200     0.02500
H76         H  0.83345131  0.03054316  0.28677985     0.16300
H77         H  0.84338991  0.98335012  0.26006464     0.16300
N78         N  0.76218224  0.01667647  0.22496501     0.00000
C79         C  0.75379060  0.03286052  0.20326151     0.02600
C80         C  0.72979860  0.02188388  0.19212402    -0.20300
C81         C  0.72390816  0.99794385  0.20666775    -0.20500
C82         C  0.74456023  0.99488520  0.22620967     0.02500
H83         H  0.71822025  0.02996129  0.17472623     0.16300
H84         H  0.70688362  0.98390835  0.20287660     0.16300
O85         O  0.80270395  0.29312927  0.20744446    -0.70900
O86         O  0.80540759  0.29682541  0.12832000    -0.71000
O87         O  0.80451028  0.33549662  0.17269246    -0.71000
O88         O  0.80344326  0.25582794  0.16585445    -0.71100
O89         O  0.75721798  0.25683532  0.16470371    -0.71000
O90         O  0.75840799  0.33620637  0.17043846    -0.71000
O91         O  0.75924698  0.29713081  0.12659198    -0.70900
O92         O  0.75644179  0.29443292  0.20594936    -0.71000
Ni93       Ni  0.80570088  0.29553557  0.16827699     1.25400
Ni94       Ni  0.75621100  0.29642869  0.16652995     1.25400
C95         C  0.77914625  0.29353056  0.21955094     0.91300
C96         C  0.78280013  0.29431296  0.11457992     0.91200
C97         C  0.78136965  0.34813897  0.17653173     0.91200
C98         C  0.78004812  0.24329921  0.16505617     0.91400
O99         O  0.75490052  0.29439832  0.26193004    -0.70900
O100        O  0.75353773  0.29124697  0.34150525    -0.71000
O101        O  0.75563839  0.33407640  0.30005807    -0.71000
O102        O  0.75285017  0.25450903  0.30046120    -0.71100
O103        O  0.79913764  0.25324997  0.30126650    -0.71000
O104        O  0.80175865  0.33237232  0.30104053    -0.71000
O105        O  0.79967758  0.29006428  0.34202439    -0.70900
O106        O  0.80117973  0.29294498  0.26284776    -0.71000
Ni107      Ni  0.75252541  0.29399781  0.30135476     1.25400
Ni108      Ni  0.80205824  0.29244371  0.30218604     1.25400
C109        C  0.77831697  0.29350944  0.24952787     0.91300
C110        C  0.77637752  0.28594982  0.35416493     0.91200
C111        C  0.77927835  0.34572427  0.29620308     0.91200
C112        C  0.77567454  0.24104013  0.30023698     0.91400
O113        O  0.80165993  0.19890002  0.16460936    -0.70900
O114        O  0.79785232  0.11898517  0.16443186    -0.71000
O115        O  0.79926389  0.16182317  0.12363898    -0.71000
O116        O  0.80026142  0.15816086  0.20358841    -0.71100
O117        O  0.75407029  0.16037275  0.20394451    -0.71000
O118        O  0.75313055  0.16356845  0.12455053    -0.71000
O119        O  0.75174486  0.12137016  0.16496313    -0.70900
O120        O  0.75545742  0.20087185  0.16505448    -0.71000
Ni121      Ni  0.80143037  0.15909394  0.16376146     1.25400
Ni122      Ni  0.75199988  0.16136731  0.16440208     1.25400
C123        C  0.77909044  0.21291405  0.16484810     0.91300
C124        C  0.77415684  0.10739336  0.16806194     0.91200
C125        C  0.77607060  0.16680578  0.11153303     0.91200
C126        C  0.77721744  0.15885598  0.21679853     0.91400
O127        O  0.75214917  0.19818474  0.29876330    -0.70900
O128        O  0.75298972  0.11854244  0.29827125    -0.71000
O129        O  0.75121433  0.16105520  0.33924535    -0.71000
O130        O  0.75355317  0.15825199  0.25969987    -0.71100
O131        O  0.79978747  0.15786626  0.26076506    -0.71000
O132        O  0.79731128  0.16243848  0.34071687    -0.71000
O133        O  0.79910519  0.11922271  0.30060690    -0.70900
O134        O  0.79844865  0.19827095  0.29929247    -0.71000
Ni135      Ni  0.75081428  0.15864599  0.29921756     1.25400
Ni136      Ni  0.80030370  0.15910011  0.30064827     1.25400
C137        C  0.77529267  0.21108548  0.29920524     0.91300
C138        C  0.77645685  0.10618213  0.29594016     0.91200
C139        C  0.77368907  0.16635104  0.35245754     0.91200
C140        C  0.77695435  0.15818156  0.24719425     0.91400
N141        N  0.78025178  0.44541587  0.22385282     0.00000
C142        C  0.76764377  0.42555132  0.20777796     0.02600
C143        C  0.75560741  0.43819938  0.18500791    -0.20300
C144        C  0.76256345  0.46567091  0.18558788    -0.20500
C145        C  0.77798393  0.46960563  0.20915467     0.02500
H146        H  0.74660736  0.42775139  0.16727481     0.16300
H147        H  0.75946355  0.48044081  0.16897501     0.16300
N148        N  0.78592599  0.44500374  0.25302457     0.00000
C149        C  0.79615958  0.42385646  0.26921697     0.02600
C150        C  0.80777367  0.43491982  0.29294399    -0.20300
C151        C  0.80314616  0.46287711  0.29261268    -0.20500
C152        C  0.78936155  0.46867383  0.26837198     0.02500
H153        H  0.81498641  0.42336247  0.31082494     0.16300
H154        H  0.80631217  0.47689374  0.30984362     0.16300
N155        N  0.79373466  0.51617876  0.22776547     0.00000
C156        C  0.81671891  0.53236478  0.22367087     0.02600
C157        C  0.83350265  0.52038217  0.20375836    -0.20300
C158        C  0.82120244  0.49589169  0.19595625    -0.20500
C159        C  0.79726517  0.49355202  0.21138511     0.02500
H160        H  0.85291590  0.52843196  0.19598003     0.16300
H161        H  0.82907466  0.48117665  0.18099451     0.16300
N162        N  0.77506245  0.51621778  0.25032150     0.00000
C163        C  0.75276118  0.53319370  0.25513073     0.02600
C164        C  0.73621988  0.52177900  0.27552732    -0.20300
C165        C  0.74784605  0.49683451  0.28287637    -0.20500
C166        C  0.77119274  0.49360822  0.26671900     0.02500
H167        H  0.71716257  0.53034490  0.28366213     0.16300
H168        H  0.73979004  0.48229936  0.29791259     0.16300
O169        O  0.70997550  0.75603985  0.26251287    -0.70900
O170        O  0.71075815  0.83557925  0.26382989    -0.71000
O171        O  0.66921060  0.79347125  0.26344543    -0.71000
O172        O  0.74895475  0.79588821  0.26272255    -0.71100
O173        O  0.74828791  0.79633421  0.21643861    -0.71000
O174        O  0.66903094  0.79509197  0.21730881    -0.71000
O175        O  0.71091270  0.83657486  0.21768353    -0.70900
O176        O  0.70912843  0.75687948  0.21625864    -0.71000
Ni177      Ni  0.70938072  0.79552613  0.26481037     1.25400
Ni178      Ni  0.70895347  0.79653918  0.21529926     1.25400
C179        C  0.71006557  0.74350161  0.23916304     0.91300
C180        C  0.71517005  0.84859711  0.24102823     0.91200
C181        C  0.65648705  0.79033567  0.24027721     0.91200
C182        C  0.76152184  0.79613260  0.23935405     0.91400
O183        O  0.84581606  0.70254186  0.26167177    -0.70900
O184        O  0.84790910  0.62304275  0.26357355    -0.71000
O185        O  0.88742270  0.66665100  0.26334162    -0.71000
O186        O  0.80809022  0.66155418  0.26176720    -0.71100
O187        O  0.80902904  0.66021615  0.21553421    -0.71000
O188        O  0.88856911  0.66636287  0.21719047    -0.71000
O189        O  0.84952106  0.62222503  0.21742936    -0.70900
O190        O  0.84635637  0.70155960  0.21539214    -0.71000
Ni191      Ni  0.84756433  0.66314410  0.26424251     1.25400
Ni192      Ni  0.84869926  0.66218109  0.21473699     1.25400
C193        C  0.84556726  0.71493778  0.23824346     0.91300
C194        C  0.84566182  0.60979308  0.24064246     0.91200
C195        C  0.90025928  0.67146433  0.24053233     0.91200
C196        C  0.79556638  0.66085991  0.23840673     0.91400
O197        O  0.71184796  0.70062461  0.21544002    -0.70900
O198        O  0.71487822  0.62100647  0.21443058    -0.71000
O199        O  0.67229993  0.66211025  0.21524547    -0.71000
O200        O  0.75229917  0.66143493  0.21490473    -0.71100
O201        O  0.75221731  0.66110564  0.26116066    -0.71000
O202        O  0.67266456  0.66119482  0.26139544    -0.71000
O203        O  0.71508029  0.62057949  0.26060215    -0.70900
O204        O  0.71180477  0.70002847  0.26170075    -0.71000
Ni205      Ni  0.71254393  0.66104851  0.21333378     1.25400
Ni206      Ni  0.71267561  0.66044752  0.26283257     1.25400
C207        C  0.71131823  0.71328786  0.23872960     0.91300
C208        C  0.71920014  0.60827366  0.23738369     0.91200
C209        C  0.65968035  0.66513336  0.23852694     0.91200
C210        C  0.76526042  0.66110763  0.23806738     0.91400
O211        O  0.80535902  0.79720020  0.26109911    -0.70900
O212        O  0.88498174  0.79678953  0.25742089    -0.71000
O213        O  0.84201805  0.83807005  0.25813894    -0.71000
O214        O  0.84554859  0.75851150  0.26032281    -0.71100
O215        O  0.84359546  0.75726945  0.21408841    -0.71000
O216        O  0.84044090  0.83651090  0.21203604    -0.71000
O217        O  0.88282543  0.79560371  0.21132916    -0.70900
O218        O  0.80359044  0.79600506  0.21485566    -0.71000
Ni219      Ni  0.84491184  0.79804261  0.26091517     1.25400
Ni220      Ni  0.84285913  0.79662760  0.21143617     1.25400
C221        C  0.79158494  0.79638683  0.23848519     0.91300
C222        C  0.89646199  0.79198943  0.23385821     0.91200
C223        C  0.83643284  0.84964061  0.23480112     0.91200
C224        C  0.84475852  0.74499443  0.23753795     0.91400
N225        N  0.49386739  0.72174202  0.22442979     0.00000
C226        C  0.47310846  0.70957073  0.20914736     0.02600
C227        C  0.48488398  0.69527789  0.18723997    -0.20300
C228        C  0.51277073  0.70053400  0.18736029    -0.20500
C229        C  0.51786430  0.71723738  0.20984943     0.02500
H230        H  0.47381332  0.68589221  0.17010630     0.16300
H231        H  0.52715486  0.69558289  0.17085530     0.16300
N232        N  0.49380964  0.72890552  0.25326510     0.00000
C233        C  0.47282972  0.74023574  0.26900947     0.02600
C234        C  0.48423323  0.75309433  0.29191901    -0.20300
C235        C  0.51214512  0.74800441  0.29171300    -0.20500
C236        C  0.51764228  0.73268943  0.26831206     0.02500
H237        H  0.47289859  0.76156201  0.30938969     0.16300
H238        H  0.52630561  0.75203794  0.30862286     0.16300
N239        N  0.56506294  0.71705315  0.25087212     0.00000
C240        C  0.58264021  0.69562341  0.25722881     0.02600
C241        C  0.57155523  0.68049888  0.27890208    -0.20300
C242        C  0.54632984  0.69223058  0.28546245    -0.20500
C243        C  0.54251165  0.71416869  0.26751688     0.02500
H244        H  0.58057640  0.66239651  0.28855702     0.16300
H245        H  0.53211972  0.68525319  0.30132210     0.16300
N246        N  0.56485456  0.73406188  0.22713795     0.00000
C247        C  0.58187585  0.75582392  0.22062491     0.02600
C248        C  0.57082867  0.77008634  0.19836166    -0.20300
C249        C  0.54609277  0.75751281  0.19163303    -0.20500
C250        C  0.54255456  0.73593256  0.21005394     0.02500
H251        H  0.57942498  0.78830871  0.18855631     0.16300
H252        H  0.53191567  0.76383662  0.17548435     0.16300
N253        N  0.99568983  0.72164454  0.24375600     0.00000
C254        C  0.97472399  0.70796449  0.25726915     0.02600
C255        C  0.98615870  0.68995495  0.27639631    -0.20300
C256        C  0.01433199  0.69040867  0.27285109    -0.20500
C257        C  0.01981843  0.70915789  0.25203596     0.02500
H258        H  0.97506583  0.67437415  0.28818964     0.16300
H259        H  0.02876894  0.67556845  0.28152333     0.16300
N260        N  0.99438891  0.74697511  0.22831842     0.00000
C261        C  0.97201451  0.75836212  0.21492787     0.02600
C262        C  0.98152765  0.77599602  0.19442212    -0.20300
C263        C  0.00974970  0.77793188  0.19712051    -0.20500
C264        C  0.01721404  0.76072674  0.21861051     0.02500
H265        H  0.96894073  0.79003212  0.18217513     0.16300
H266        H  0.02279711  0.79320469  0.18712473     0.16300
N267        N  0.06527500  0.72290449  0.22942952     0.00000
C268        C  0.08280192  0.71140819  0.21049301     0.02600
C269        C  0.07370298  0.68497641  0.20427814    -0.20300
C270        C  0.04953779  0.68069351  0.21910979    -0.20500
C271        C  0.04444411  0.70474179  0.23380615     0.02500
H272        H  0.08310520  0.67062762  0.18984784     0.16300
H273        H  0.03671151  0.66234934  0.21861977     0.16300
N274        N  0.06457695  0.75035670  0.23877886     0.00000
C275        C  0.08143986  0.76237145  0.25790494     0.02600
C276        C  0.07050317  0.78784065  0.26526620    -0.20300
C277        C  0.04578896  0.79085236  0.25102158    -0.20500
C278        C  0.04231644  0.76704109  0.23551192     0.02500
H279        H  0.07883554  0.80210824  0.28037687     0.16300
H280        H  0.03139485  0.80794804  0.25275297     0.16300
N281        N  0.27319848  0.74710944  0.95270193     0.00000
C282        C  0.26172768  0.76361589  0.93252763     0.02600
C283        C  0.24964299  0.78656743  0.94472567    -0.20300
C284        C  0.25511547  0.78541237  0.97252214    -0.20500
C285        C  0.27001411  0.76150540  0.97703377     0.02500
H286        H  0.24127933  0.80447314  0.93401768     0.16300
H287        H  0.25166946  0.80199021  0.98725373     0.16300
N288        N  0.28076738  0.71839732  0.95150939     0.00000
C289        C  0.29451433  0.70470019  0.93059011     0.02600
C290        C  0.31034036  0.68370848  0.94215095    -0.20300
C291        C  0.30431577  0.68246975  0.96986757    -0.20500
C292        C  0.28582696  0.70345821  0.97505633     0.02500
H293        H  0.32124361  0.66760983  0.93084652     0.16300
H294        H  0.31027464  0.66606151  0.98397086     0.16300
N295        N  0.28631694  0.74247429  0.02352826     0.00000
C296        C  0.30847914  0.74796877  0.04047336     0.02600
C297        C  0.32384481  0.76943017  0.02937769    -0.20300
C298        C  0.31154841  0.77688444  0.00477348    -0.20500
C299        C  0.28899103  0.75971046  0.00137937     0.02500
H300        H  0.34241538  0.77844701  0.03806362     0.16300
H301        H  0.31854264  0.79282363  0.99066358     0.16300
N302        N  0.26935556  0.71867005  0.02270159     0.00000
C303        C  0.24668541  0.71254943  0.03865767     0.02600
C304        C  0.23145130  0.69180765  0.02610975    -0.20300
C305        C  0.24436702  0.68557176  0.00144151    -0.20500
C306        C  0.26716369  0.70266069  0.99963340     0.02500
H307        H  0.21241681  0.68273475  0.03370118     0.16300
H308        H  0.23742281  0.67080037  0.98610855     0.16300
O309        O  0.24828858  0.70878295  0.16838688    -0.70900
O310        O  0.16904314  0.70736866  0.16890160    -0.71000
O311        O  0.21079090  0.70723646  0.12805783    -0.71000
O312        O  0.20842928  0.70918413  0.20761472    -0.71100
O313        O  0.20809762  0.75543092  0.20630377    -0.71000
O314        O  0.20977716  0.75339494  0.12669903    -0.71000
O315        O  0.16795499  0.75354002  0.16821019    -0.70900
O316        O  0.24786910  0.75502572  0.16682990    -0.71000
Ni317      Ni  0.20890975  0.70651845  0.16802341     1.25400
Ni318      Ni  0.20810246  0.75601470  0.16668415     1.25400
C319        C  0.26104822  0.73198250  0.16767970     0.91300
C320        C  0.15577238  0.73017358  0.17202654     0.91200
C321        C  0.21397778  0.73002924  0.11471479     0.91200
C322        C  0.20819602  0.73267567  0.21994132     0.91400
O323        O  0.34135899  0.70654873  0.20884334    -0.70900
O324        O  0.34278166  0.70671860  0.12945548    -0.71000
O325        O  0.38279263  0.70499463  0.17270513    -0.71000
O326        O  0.30357033  0.70814443  0.16817409    -0.71100
O327        O  0.30492541  0.75439492  0.16829499    -0.71000
O328        O  0.38467409  0.75109275  0.17373416    -0.71000
O329        O  0.34476081  0.75283754  0.12985039    -0.70900
O330        O  0.34270821  0.75281617  0.20945226    -0.71000
Ni331      Ni  0.34288342  0.70499234  0.16947874     1.25400
Ni332      Ni  0.34466300  0.75447650  0.16998180     1.25400
C333        C  0.34150906  0.72952862  0.22203762     0.91300
C334        C  0.34022149  0.73001096  0.11689941     0.91200
C335        C  0.39612483  0.72738025  0.17797158     0.91200
C336        C  0.29128447  0.73164095  0.16800167     0.91400
O337        O  0.24807234  0.75441138  0.30306101    -0.70900
O338        O  0.16926071  0.76270760  0.29965766    -0.71000
O339        O  0.20927694  0.75975221  0.34185902    -0.71000
O340        O  0.20972901  0.75708088  0.26242193    -0.71100
O341        O  0.20536877  0.71105134  0.26394250    -0.71000
O342        O  0.20465361  0.71382704  0.34359676    -0.71000
O343        O  0.16433619  0.71680115  0.30083137    -0.70900
O344        O  0.24382380  0.70838093  0.30471481    -0.71000
Ni345      Ni  0.20900102  0.76011144  0.30192970     1.25400
Ni346      Ni  0.20407271  0.71087326  0.30359069     1.25400
C347        C  0.25889091  0.73022353  0.30430197     0.91300
C348        C  0.15421931  0.74107369  0.29650651     0.91200
C349        C  0.21025368  0.73694468  0.35547590     0.91200
C350        C  0.20781748  0.73362033  0.25020581     0.91400
O351        O  0.34208533  0.75130040  0.26601239    -0.70900
O352        O  0.34107333  0.74706911  0.34569119    -0.71000
O353        O  0.38238974  0.74826917  0.30337773    -0.71000
O354        O  0.30306988  0.75062895  0.30588406    -0.71100
O355        O  0.30116205  0.70443716  0.30431844    -0.71000
O356        O  0.38117461  0.70227679  0.29985189    -0.71000
O357        O  0.34069422  0.70098270  0.34300228    -0.70900
O358        O  0.33978573  0.70511465  0.26394781    -0.71000
Ni359      Ni  0.34251025  0.75093104  0.30566966     1.25400
Ni360      Ni  0.34094942  0.70151737  0.30305533     1.25400
C361        C  0.34090325  0.72874893  0.25209235     0.91300
C362        C  0.33701907  0.72328960  0.35697669     0.91200
C363        C  0.39428113  0.72532057  0.29705826     0.91200
C364        C  0.28912697  0.72813373  0.30498815     0.91400
N365        N  0.27646083  0.73653368  0.51723578     0.00000
C366        C  0.28940465  0.74840532  0.53961150     0.02600
C367        C  0.30940435  0.76659794  0.53009433    -0.20300
C368        C  0.30681355  0.76832851  0.50188663    -0.20500
C369        C  0.28594270  0.75044484  0.49443318     0.02500
H370        H  0.32101317  0.78116220  0.54262902     0.16300
H371        H  0.31626765  0.78394578  0.48883569     0.16300
N372        N  0.26203106  0.71062374  0.51583137     0.00000
C373        C  0.24909572  0.69613675  0.53671980     0.02600
C374        C  0.23184294  0.67643925  0.52522547    -0.20300
C375        C  0.23568470  0.67703751  0.49711149    -0.20500
C376        C  0.25495048  0.69739277  0.49162200     0.02500
H377        H  0.22089461  0.66027564  0.53634854     0.16300
H378        H  0.22825556  0.66156146  0.48267803     0.16300
N379        N  0.27671224  0.71294898  0.44593678     0.00000
C380        C  0.29584510  0.70219528  0.42803317     0.02600
C381        C  0.30276806  0.67574818  0.43660736    -0.20300
C382        C  0.28841788  0.67071453  0.46088238    -0.20500
C383        C  0.27325107  0.69434257  0.46668963     0.02500
H384        H  0.31753462  0.66196045  0.42689003     0.16300
H385        H  0.28954783  0.65212289  0.47334748     0.16300
N386        N  0.26631068  0.74008221  0.44697699     0.00000
C387        C  0.24726864  0.75223354  0.42998591     0.02600
C388        C  0.23933087  0.77737757  0.44120377    -0.20300
C389        C  0.25305971  0.78013048  0.46615773    -0.20500
C390        C  0.26886742  0.75648814  0.46949020     0.02500
H391        H  0.22428947  0.79167984  0.43274768     0.16300
H392        H  0.25098046  0.79704226  0.48069158     0.16300
O393        O  0.24732108  0.75546389  0.66844042    -0.70900
O394        O  0.25161982  0.83472610  0.66498039    -0.71000
O395        O  0.24902047  0.79035170  0.62602391    -0.71000
O396        O  0.25015392  0.79724355  0.70557037    -0.71100
O397        O  0.29635168  0.79461712  0.70505997    -0.71000
O398        O  0.29516353  0.78898531  0.62582902    -0.71000
O399        O  0.29775131  0.83269869  0.66526895    -0.70900
O400        O  0.29355647  0.75330926  0.66753981    -0.71000
Ni401      Ni  0.24786855  0.79487899  0.66598584     1.25400
Ni402      Ni  0.29734577  0.79260337  0.66560212     1.25400
C403        C  0.26982856  0.74149550  0.66831672     0.91300
C404        C  0.27521789  0.84648700  0.66845241     0.91200
C405        C  0.27192987  0.78466468  0.61365969     0.91200
C406        C  0.27346226  0.79655748  0.71826868     0.91400
O407        O  0.29549393  0.66046877  0.76152272    -0.70900
O408        O  0.29949758  0.66597765  0.84086031    -0.71000
O409        O  0.29800038  0.62222138  0.80111753    -0.71000
O410        O  0.29683726  0.70171722  0.79920432    -0.71100
O411        O  0.25060700  0.70153139  0.80153844    -0.71000
O412        O  0.25192148  0.62201799  0.80394700    -0.71000
O413        O  0.25342223  0.66607192  0.84349605    -0.70900
O414        O  0.24929252  0.66005539  0.76402192    -0.71000
Ni415      Ni  0.29911163  0.66231748  0.80090444     1.25400
Ni416      Ni  0.24966901  0.66206160  0.80364243     1.25400
C417        C  0.27172815  0.65967085  0.74982705     0.91300
C418        C  0.27716394  0.67095703  0.85449840     0.91200
C419        C  0.27483709  0.60935090  0.79903035     0.91200
C420        C  0.27361984  0.71453391  0.80002830     0.91400
O421        O  0.25106183  0.79802289  0.76175573    -0.70900
O422        O  0.25208386  0.79559646  0.84113003    -0.71000
O423        O  0.25291844  0.83775177  0.80008695    -0.71000
O424        O  0.25079473  0.75803141  0.80074442    -0.71100
O425        O  0.29706330  0.75704894  0.79959467    -0.71000
O426        O  0.29908198  0.83609136  0.80058037    -0.71000
O427        O  0.29821253  0.79339686  0.84081589    -0.70900
O428        O  0.29732796  0.79729522  0.76115239    -0.71000
Ni429      Ni  0.25005544  0.79770992  0.80125718     1.25400
Ni430      Ni  0.29957410  0.79625182  0.80078717     1.25400
C431        C  0.27399176  0.79750455  0.74848874     0.91300
C432        C  0.27500855  0.79026246  0.85348483     0.91200
C433        C  0.27651738  0.84958333  0.79679030     0.91200
C434        C  0.27371571  0.74463486  0.79993842     0.91400
O435        O  0.24640832  0.65909344  0.70793415    -0.70900
O436        O  0.24237346  0.66169979  0.62847202    -0.71000
O437        O  0.24397600  0.61929768  0.66967865    -0.71000
O438        O  0.24519385  0.69907294  0.66901061    -0.71100
O439        O  0.29142652  0.69798056  0.66692094    -0.71000
O440        O  0.29003267  0.61884287  0.66632556    -0.71000
O441        O  0.28846299  0.66151427  0.62586211    -0.70900
O442        O  0.29259914  0.65788473  0.70542275    -0.71000
Ni443      Ni  0.24278036  0.65948576  0.66853757     1.25400
Ni444      Ni  0.29222479  0.65868233  0.66575164     1.25400
C445        C  0.27018002  0.65869572  0.71963241     0.91300
C446        C  0.26474141  0.66593407  0.61464916     0.91200
C447        C  0.26719292  0.60639673  0.67170132     0.91200
C448        C  0.26866312  0.71142562  0.66827559     0.91400
O449        O  0.83995119  0.20539896  0.70845132    -0.70900
O450        O  0.83892969  0.20203375  0.62907701    -0.71000
O451        O  0.88033993  0.20381920  0.67137341    -0.71000
O452        O  0.80052211  0.20381966  0.66884935    -0.71100
O453        O  0.80067324  0.25006059  0.66738342    -0.71000
O454        O  0.88028041  0.24988586  0.66870591    -0.71000
O455        O  0.83825813  0.24813097  0.62689811    -0.70900
O456        O  0.84051876  0.25164413  0.70662458    -0.71000
Ni457      Ni  0.84021378  0.20211369  0.66915595     1.25400
Ni458      Ni  0.84022651  0.25156992  0.66698257     1.25400
C459        C  0.84053373  0.22900391  0.72045143     0.91300
C460        C  0.83463752  0.22442395  0.61532567     0.91200
C461        C  0.89280598  0.22711920  0.67457492     0.91200
C462        C  0.78760843  0.22701021  0.66821342     0.91400
O463        O  0.74648488  0.25456299  0.80227930    -0.70900
O464        O  0.66679040  0.25285653  0.80285440    -0.71000
O465        O  0.70957154  0.25545835  0.84308445    -0.71000
O466        O  0.70594530  0.25236876  0.76384793    -0.71100
O467        O  0.70621180  0.20613105  0.76536597    -0.71000
O468        O  0.71159934  0.20936813  0.84506882    -0.71000
O469        O  0.66805437  0.20676576  0.80558208    -0.70900
O470        O  0.74721331  0.20828542  0.80330821    -0.71000
Ni471      Ni  0.70685956  0.25545863  0.80322524     1.25400
Ni472      Ni  0.70798454  0.20598065  0.80515973     1.25400
C473        C  0.75974894  0.23158335  0.80266758     0.91300
C474        C  0.65464477  0.22926783  0.80100258     0.91200
C475        C  0.71513674  0.23316562  0.85646521     0.91200
C476        C  0.70577010  0.22886319  0.75161535     0.91400
O477        O  0.74390253  0.20449188  0.66838391    -0.70900
O478        O  0.66408912  0.20644099  0.67058835    -0.71000
O479        O  0.70553904  0.20558943  0.62842440    -0.71000
O480        O  0.70456858  0.20522188  0.70838177    -0.71100
O481        O  0.70550320  0.25146965  0.70822957    -0.71000
O482        O  0.70648234  0.25174758  0.62871323    -0.71000
O483        O  0.66537189  0.25259834  0.67037121    -0.70900
O484        O  0.74478446  0.25074536  0.66847431    -0.71000
Ni485      Ni  0.70418744  0.20376131  0.66863683     1.25400
Ni486      Ni  0.70529607  0.25324974  0.66868403     1.25400
C487        C  0.75732860  0.22737279  0.66838191     0.91300
C488        C  0.65208489  0.22992878  0.67430319     0.91200
C489        C  0.70954669  0.22870391  0.61580385     0.91200
C490        C  0.70521022  0.22838574  0.72130822     0.91400
O491        O  0.84223315  0.25318765  0.76305819    -0.70900
O492        O  0.84081067  0.25399238  0.84279397    -0.71000
O493        O  0.88271607  0.25250245  0.80046197    -0.71000
O494        O  0.80304399  0.25452557  0.80268455    -0.71100
O495        O  0.80238135  0.20823459  0.80326707    -0.71000
O496        O  0.88147014  0.20635958  0.80147075    -0.71000
O497        O  0.84011101  0.20783463  0.84313061    -0.70900
O498        O  0.84141598  0.20690897  0.76386694    -0.71000
Ni499      Ni  0.84262625  0.25527061  0.80260186     1.25400
Ni500      Ni  0.84165134  0.20573243  0.80328035     1.25400
C501        C  0.84141984  0.22982494  0.75055172     0.91300
C502        C  0.83598509  0.23103223  0.85542600     0.91200
C503        C  0.89449882  0.22893466  0.79643075     0.91200
C504        C  0.78981909  0.23155984  0.80278925     0.91400
N505        N  0.25642718  0.44500539  0.73293436     0.00000
C506        C  0.24046125  0.42518987  0.72005290     0.02600
C507        C  0.21766007  0.43776159  0.70803364    -0.20300
C508        C  0.21825307  0.46525652  0.71488437    -0.20500
C509        C  0.24175167  0.46926572  0.73042008     0.02500
H510        H  0.20012543  0.42729987  0.69868145     0.16300
H511        H  0.20174455  0.48009029  0.71148032     0.16300
N512        N  0.28547423  0.44429213  0.73925132     0.00000
C513        C  0.29961434  0.42415166  0.75366709     0.02600
C514        C  0.32092340  0.43643270  0.76843206    -0.20300
C515        C  0.32188341  0.46382655  0.76117942    -0.20500
C516        C  0.30040580  0.46811391  0.74307747     0.02500
H517        H  0.33728400  0.42566938  0.77947395     0.16300
H518        H  0.33819830  0.47832328  0.76630556     0.16300
N519        N  0.28353012  0.51544238  0.72747058     0.00000
C520        C  0.28824464  0.53163581  0.70464959     0.02600
C521        C  0.30874237  0.51968940  0.68853403    -0.20300
C522        C  0.31607036  0.49506248  0.70099704    -0.20500
C523        C  0.29984030  0.49267253  0.72438995     0.02500
H524        H  0.31678976  0.52753926  0.66914489     0.16300
H525        H  0.33095138  0.48012783  0.69335869     0.16300
N526        N  0.26073073  0.51592282  0.74578958     0.00000
C527        C  0.25594735  0.53301537  0.76800325     0.02600
C528        C  0.23507357  0.52193194  0.78419378    -0.20300
C529        C  0.22741604  0.49713695  0.77237312    -0.20500
C530        C  0.24390864  0.49362842  0.74930025     0.02500
H531        H  0.22663577  0.53071724  0.80300753     0.16300
H532        H  0.21179748  0.48300978  0.78000484     0.16300
N533        N  0.26769433  0.93902475  0.72374871     0.00000
C534        C  0.25982236  0.92227718  0.70226236     0.02600
C535        C  0.23680324  0.93359305  0.68949606    -0.20300
C536        C  0.23096631  0.95823332  0.70274083    -0.20500
C537        C  0.25066731  0.96134236  0.72318496     0.02500
H538        H  0.22577374  0.92514322  0.67193601     0.16300
H539        H  0.21448551  0.97255421  0.69766640     0.16300
N540        N  0.29248574  0.93872978  0.73909346     0.00000
C541        C  0.29903108  0.92245572  0.76132868     0.02600
C542        C  0.32184878  0.93330555  0.77477010    -0.20300
C543        C  0.32879987  0.95748647  0.76128700    -0.20500
C544        C  0.30994918  0.96074001  0.74003677     0.02500
H545        H  0.33161440  0.92520510  0.79323852     0.16300
H546        H  0.34503324  0.97175653  0.76709927     0.16300
N547        N  0.26630372  0.00938005  0.73747902     0.00000
C548        C  0.25240713  0.02976613  0.75180006     0.02600
C549        C  0.23184720  0.01759017  0.76769171    -0.20300
C550        C  0.23107172  0.98999123  0.76123519    -0.20500
C551        C  0.25186857  0.98546309  0.74234282     0.02500
H552        H  0.21568722  0.02841214  0.77897848     0.16300
H553        H  0.21494696  0.97554274  0.76711261     0.16300
N554        N  0.29438300  0.00940505  0.72769101     0.00000
C555        C  0.30953413  0.03075508  0.71648730     0.02600
C556        C  0.33158138  0.01995157  0.70168210    -0.20300
C557        C  0.33149488  0.99182829  0.70536568    -0.20500
C558        C  0.30905103  0.98572930  0.72188070     0.02500
H559        H  0.34861961  0.03162955  0.69281793     0.16300
H560        H  0.34817320  0.97785301  0.69980672     0.16300
N561        N  0.99108664  0.22185511  0.74921887     0.00000
C562        C  0.97027347  0.20986262  0.76448131     0.02600
C563        C  0.98182495  0.19568898  0.78660745    -0.20300
C564        C  0.00969096  0.20091615  0.78666785    -0.20500
C565        C  0.01489163  0.21733755  0.76401234     0.02500
H566        H  0.97058778  0.18662304  0.80384523     0.16300
H567        H  0.02396049  0.19611889  0.80329427     0.16300
N568        N  0.99143013  0.22779676  0.72008378     0.00000
C569        C  0.97139220  0.24028302  0.70399613     0.02600
C570        C  0.98389044  0.25219890  0.68108622    -0.20300
C571        C  0.01142912  0.24542051  0.68164883    -0.20500
C572        C  0.01558587  0.23014985  0.70530589     0.02500
H573        H  0.97333080  0.26115000  0.66337598     0.16300
H574        H  0.02611903  0.24851930  0.66496631     0.16300
N575        N  0.06215960  0.23260828  0.74654163     0.00000
C576        C  0.07858865  0.25524332  0.75133360     0.02600
C577        C  0.06703898  0.27118716  0.77215984    -0.20300
C578        C  0.04249025  0.25881314  0.77972093    -0.20500
C579        C  0.03969964  0.23564158  0.76327770     0.02500
H580        H  0.07518092  0.29035419  0.78039391     0.16300
H581        H  0.02785009  0.26636780  0.79492235     0.16300
N582        N  0.06229529  0.21426299  0.72376422     0.00000
C583        C  0.07806790  0.19087296  0.72011662     0.02600
C584        C  0.06581033  0.17395841  0.70055355    -0.20300
C585        C  0.04153150  0.18656133  0.69252493    -0.20500
C586        C  0.03961798  0.21085240  0.70741689     0.02500
H587        H  0.07347487  0.15419805  0.69325878     0.16300
H588        H  0.02657670  0.17857336  0.67789927     0.16300
O589        O  0.20538996  0.19681556  0.71328837    -0.70900
O590        O  0.21174314  0.11735832  0.71442288    -0.71000
O591        O  0.16750563  0.15653005  0.71460577    -0.61400
O592        O  0.24683997  0.15946290  0.71315194    -0.71100
O593        O  0.24741935  0.15995841  0.75944035    -0.71000
O594        O  0.16793225  0.15781090  0.76075655    -0.71000
O595        O  0.21189246  0.11819521  0.76056606    -0.70900
O596        O  0.20620532  0.19773539  0.75953136    -0.71000
Ni597      Ni  0.20747348  0.15722595  0.71223313     1.25400
Ni598      Ni  0.20804091  0.15814007  0.76174404     1.25400
C599        C  0.20557792  0.21027379  0.73615221     0.91300
C600        C  0.21699218  0.10554923  0.73768573     0.91200
C601        C  0.15491669  0.16046214  0.73772469     0.91200
C602        C  0.26001285  0.16010444  0.73610819     0.91400
O603        O  0.20495585  0.25434304  0.75806802    -0.70900
O604        O  0.20811354  0.33409704  0.75525175    -0.71000
O605        O  0.16570219  0.29319809  0.75550486    -0.71000
O606        O  0.24502323  0.29347024  0.75792802    -0.71100
O607        O  0.24642609  0.29224147  0.71168259    -0.71000
O608        O  0.16681431  0.29100736  0.70939413    -0.71000
O609        O  0.20890949  0.33237230  0.70913348    -0.70900
O610        O  0.20655126  0.25282501  0.71186170    -0.71000
Ni611      Ni  0.20557445  0.29410019  0.75831721     1.25400
Ni612      Ni  0.20692405  0.29232852  0.70885166     1.25400
C613        C  0.20557924  0.24058560  0.73537534     0.91300
C614        C  0.21283763  0.34576328  0.73178411     0.91200
C615        C  0.15361380  0.28832178  0.73234221     0.91200
C616        C  0.25863909  0.29313946  0.73519654     0.91400
O617        O  0.34246842  0.25668495  0.71425553    -0.70900
O618        O  0.33932044  0.33613879  0.71607448    -0.71000
O619        O  0.38215926  0.29461077  0.71668654    -0.71000
O620        O  0.30249748  0.29528346  0.71357878    -0.71100
O621        O  0.30076882  0.29420184  0.75982513    -0.71000
O622        O  0.38019144  0.29366121  0.76277978    -0.71000
O623        O  0.33774836  0.33481685  0.76218478    -0.70900
O624        O  0.34073287  0.25560774  0.76052031    -0.71000
Ni625      Ni  0.34204939  0.29611686  0.71348210     1.25400
Ni626      Ni  0.34014015  0.29490428  0.76297714     1.25400
C627        C  0.34157187  0.24328996  0.73711055     0.91300
C628        C  0.33370299  0.34782034  0.73934211     0.91200
C629        C  0.39369342  0.28966644  0.74018772     0.91200
C630        C  0.28873117  0.29418563  0.73621830     0.91400
O631        O  0.34192064  0.19987875  0.75932347    -0.70900
O632        O  0.34132116  0.12035200  0.75722405    -0.71000
O633        O  0.38255748  0.16298611  0.75811845    -0.71000
O634        O  0.30316136  0.16002081  0.75872650    -0.71100
O635        O  0.30273771  0.16116207  0.71244245    -0.71000
O636        O  0.38207800  0.16421791  0.71196819    -0.71000
O637        O  0.34125733  0.12185382  0.71107469    -0.70900
O638        O  0.34150822  0.20104431  0.71302897    -0.71000
Ni639      Ni  0.34258591  0.16041035  0.76002098     1.25400
Ni640      Ni  0.34219231  0.16177221  0.71047572     1.25400
C641        C  0.34161409  0.21331797  0.73647211     0.91300
C642        C  0.33721484  0.10854248  0.73372593     0.91200
C643        C  0.39465086  0.16835737  0.73502548     0.91200
C644        C  0.29005918  0.16055816  0.73572228     0.91400
N645        N  0.56240294  0.21660761  0.74694782     0.00000
C646        C  0.57981368  0.20828839  0.76766026     0.02600
C647        C  0.56943802  0.18444461  0.77969768    -0.20300
C648        C  0.54459738  0.17862102  0.76679100    -0.20500
C649        C  0.54040509  0.19920528  0.74735234     0.02500
H650        H  0.57849523  0.17298123  0.79669547     0.16300
H651        H  0.53079693  0.16161963  0.77153320     0.16300
N652        N  0.56209814  0.24197743  0.73263511     0.00000
C653        C  0.57856413  0.25018646  0.71108383     0.02600
C654        C  0.56749080  0.27384266  0.69928174    -0.20300
C655        C  0.54317340  0.27967076  0.71318029    -0.20500
C656        C  0.53999871  0.25933587  0.73303518     0.02500
H657        H  0.57563365  0.28507399  0.68167603     0.16300
H658        H  0.52886159  0.29631277  0.70861539     0.16300
N659        N  0.49185549  0.21518138  0.73427579     0.00000
C660        C  0.47111331  0.20104478  0.72087003     0.02600
C661        C  0.48270974  0.18011583  0.70506703    -0.20300
C662        C  0.51052437  0.17954191  0.71047939    -0.20500
C663        C  0.51572295  0.20068371  0.72882455     0.02500
H664        H  0.47151339  0.16381299  0.69442718     0.16300
H665        H  0.52476487  0.16327584  0.70442347     0.16300
N666        N  0.49156968  0.24296944  0.74483626     0.00000
C667        C  0.47024151  0.25711347  0.75750289     0.02600
C668        C  0.48133620  0.27756264  0.77423531    -0.20300
C669        C  0.50941082  0.27789744  0.77004689    -0.20500
C670        C  0.51525818  0.25710815  0.75145552     0.02500
H671        H  0.46982634  0.29382755  0.78465488     0.16300
H672        H  0.52345219  0.29399933  0.77687189     0.16300
C673        C  0.42152012  0.18249152  0.73475391    -0.09800
C674        C  0.44329061  0.19503973  0.73125129    -0.11300
C675        C  0.44285277  0.26371441  0.74592939    -0.09800
C676        C  0.42102916  0.27610267  0.74150034    -0.11300
C677        C  0.12661024  0.17146706  0.73734799    -0.09800
C678        C  0.10429606  0.18274098  0.73299207    -0.11300
C679        C  0.10404699  0.26419566  0.73756435    -0.09800
C680        C  0.12580754  0.27624698  0.73272249    -0.11300
C681        C  0.32474519  0.08090674  0.73235847    -0.09800
C682        C  0.31366688  0.05857871  0.72769012    -0.11300
C683        C  0.24519557  0.05752029  0.74170014    -0.09800
C684        C  0.23196009  0.07899233  0.73831781    -0.11300
C685        C  0.30642782  0.39626724  0.74371569    -0.09800
C686        C  0.31932785  0.37465568  0.74005404    -0.11300
C687        C  0.23668678  0.39607699  0.72780252    -0.09800
C688        C  0.22562276  0.37337993  0.73073203    -0.11300
C689        C  0.92150492  0.22722025  0.78265119    -0.09800
C690        C  0.94302886  0.22180854  0.77032485    -0.11300
C691        C  0.60300511  0.23658818  0.69922580    -0.09800
C692        C  0.62430174  0.23131856  0.68647185    -0.11300
C693        C  0.62641898  0.22743842  0.79014182    -0.09800
C694        C  0.60465687  0.22191450  0.77842356    -0.11300
C695        C  0.92018535  0.22814785  0.68803105    -0.09800
C696        C  0.94256792  0.23157761  0.69966910    -0.11300
C697        C  0.27412845  0.55687829  0.69552331    -0.09800
C698        C  0.26842203  0.57852340  0.68360854    -0.11300
C699        C  0.27825614  0.87737877  0.78501903    -0.09800
C700        C  0.28432816  0.89849426  0.77247882    -0.11300
C701        C  0.27401919  0.58118258  0.78758911    -0.09800
C702        C  0.26936226  0.55900287  0.77614115    -0.11300
C703        C  0.27597484  0.87465013  0.67975299    -0.09800
C704        C  0.27236088  0.89666721  0.69183190    -0.11300
C705        C  0.25927996  0.69030882  0.56474355    -0.09800
C706        C  0.26307822  0.67876630  0.58707586    -0.11300
C707        C  0.27197469  0.77005939  0.58696843    -0.09800
C708        C  0.27638407  0.75673756  0.56577990    -0.11300
C709        C  0.31036134  0.71581670  0.40502622    -0.09800
C710        C  0.32427968  0.72126921  0.38449553    -0.11300
C711        C  0.22138866  0.73729236  0.38359855    -0.09800
C712        C  0.23404890  0.74094837  0.40519417    -0.11300
C713        C  0.23732761  0.72492568  0.06466925    -0.09800
C714        C  0.22557697  0.72915463  0.08672051    -0.11300
C715        C  0.31709743  0.73502220  0.06655921    -0.09800
C716        C  0.32870695  0.73087370  0.08876246    -0.11300
C717        C  0.27901025  0.68522220  0.88141101    -0.09800
C718        C  0.28345957  0.69786344  0.90305494    -0.11300
C719        C  0.27419900  0.77770677  0.88109806    -0.09800
C720        C  0.27053018  0.76694825  0.90376801    -0.11300
C721        C  0.10547710  0.75014737  0.27184315    -0.09800
C722        C  0.12651424  0.74434126  0.28469904    -0.11300
C723        C  0.12773825  0.72909410  0.18351234    -0.09800
C724        C  0.10650204  0.72414420  0.19643352    -0.11300
C725        C  0.44433042  0.73022284  0.27267187    -0.09800
C726        C  0.42179861  0.72610758  0.28382348    -0.11300
C727        C  0.42329977  0.72543323  0.19170611    -0.09800
C728        C  0.44525473  0.72059234  0.20365334    -0.11300
C729        C  0.92392212  0.77891526  0.23240442    -0.09800
C730        C  0.94554727  0.76643460  0.22756791    -0.11300
C731        C  0.63127312  0.67613351  0.23948232    -0.09800
C732        C  0.60883776  0.68715974  0.24420514    -0.11300
C733        C  0.92689838  0.68604237  0.24143388    -0.09800
C734        C  0.94805260  0.69940441  0.24564649    -0.11300
C735        C  0.60707085  0.76574462  0.23438514    -0.09800
C736        C  0.62870048  0.77802555  0.23945050    -0.11300
C737        C  0.74439304  0.55903582  0.24174500    -0.09800
C738        C  0.73207846  0.58078912  0.23745777    -0.11300
C739        C  0.82449571  0.55875461  0.23633826    -0.09800
C740        C  0.83529524  0.58129694  0.24048987    -0.11300
C741        C  0.78104457  0.37316049  0.28316857    -0.09800
C742        C  0.78574499  0.39554527  0.27210755    -0.11300
C743        C  0.78064608  0.37502732  0.19077287    -0.09800
C744        C  0.77690839  0.39705696  0.20288572    -0.11300
C745        C  0.76705032  0.05751353  0.19137158    -0.09800
C746        C  0.77232775  0.07916962  0.17920759    -0.11300
C747        C  0.78364186  0.05715928  0.27144722    -0.09800
C748        C  0.77804562  0.07831080  0.28421074    -0.11300
C749        C  0.72830681  0.87603328  0.24185930    -0.09800
C750        C  0.74023283  0.89821928  0.24516523    -0.11300
C751        C  0.80872088  0.89754477  0.22889538    -0.09800
C752        C  0.82203274  0.87644370  0.23381154    -0.11300
C753        C  0.78838051  0.27376138  0.06355755    -0.09800
C754        C  0.78411069  0.28478434  0.08591964    -0.11300
C755        C  0.77536787  0.17980278  0.08410610    -0.09800
C756        C  0.77021861  0.19359251  0.06344162    -0.11300
C757        C  0.80920892  0.22658477  0.90397384    -0.09800
C758        C  0.82218262  0.23084285  0.88253679    -0.11300
C759        C  0.74064003  0.24085772  0.90522214    -0.09800
C760        C  0.72859787  0.23539871  0.88358227    -0.11300
C761        C  0.80993385  0.21743995  0.56586870    -0.09800
C762        C  0.82235670  0.22256066  0.58746988    -0.11300
C763        C  0.73247377  0.23333360  0.56536802    -0.09800
C764        C  0.72078430  0.22913249  0.58753219    -0.11300
C765        C  0.77984959  0.25964345  0.40319792    -0.09800
C766        C  0.77625701  0.27203184  0.38127141    -0.11300
C767        C  0.76738796  0.19124643  0.40215374    -0.09800
C768        C  0.77197223  0.17972067  0.37988628    -0.11300
loop_ 
_geom_bond_atom_site_label_1 
_geom_bond_atom_site_label_2 
_geom_bond_distance 
_geom_bond_site_symmetry_2 
_ccdc_geom_bond_type 
N1            C5   1.375       .  A
N1            C2   1.379       .  A
N1            N8   1.434       .  S
C2            C3   1.383       .  A
C2          C767   1.471       .  S
C3            C4   1.370       .  A
C3            H6   1.085       .  S
C4            C5   1.377       .  A
C4            H7   1.083       .  S
C5           C26   1.501       .  S
N8           C12   1.371       .  A
N8            C9   1.376       .  A
C9           C10   1.384       .  A
C9          C765   1.467       .  S
C10          C11   1.369       .  A
C10          H13   1.085       .  S
C11          C12   1.375       .  A
C11          H14   1.083       .  S
C12          C19   1.493       .  S
N15          C19   1.357       .  A
N15          C16   1.370       .  A
N15          N22   1.407       .  S
C16          C17   1.383       .  A
C16         C763   1.467       .  S
C17          C18   1.380       .  A
C17          H20   1.082       .  S
C18          C19   1.380       .  A
C18          H21   1.081       .  S
N22          C26   1.360       .  A
N22          C23   1.371       .  A
C23          C24   1.383       .  A
C23         C761   1.471       .  S
C24          C25   1.380       .  A
C24          H27   1.081       .  S
C25          C26   1.381       .  A
C25          H28   1.082       .  S
N29          C33   1.373       .  A
N29          C30   1.372       .  A
N29          N36   1.432       .  S
C30          C31   1.382       .  A
C30         C759   1.463       .  S
C31          C32   1.371       .  A
C31          H34   1.085       .  S
C32          C33   1.378       .  A
C32          H35   1.083       .  S
C33          C47   1.497   1_556  S
N36          C40   1.364       .  A
N36          C37   1.373       .  A
C37          C38   1.385       .  A
C37         C757   1.466       .  S
C38          C39   1.371       .  A
C38          H41   1.085       .  S
C39          C40   1.373       .  A
C39          H42   1.083       .  S
C40          C54   1.485       .  S
N43          C47   1.357       .  A
N43          C44   1.367       .  A
N43          N50   1.405       .  S
C44          C45   1.382       .  A
C44         C756   1.465       .  S
C45          C46   1.380       .  A
C45          H48   1.082       .  S
C46          C47   1.381       .  A
C46          H49   1.081   1_554  S
N50          C54   1.352   1_554  A
N50          C51   1.366       .  A
C51          C52   1.383       .  A
C51         C753   1.461       .  S
C52          C53   1.379       .  A
C52          H55   1.082       .  S
C53          C54   1.380   1_554  A
C53          H56   1.082   1_554  S
N57          C61   1.369       .  A
N57          C58   1.374       .  A
N57          N64   1.434       .  S
C58          C59   1.384       .  A
C58         C751   1.467       .  S
C59          C60   1.370       .  A
C59          H62   1.085       .  S
C60          C61   1.375       .  A
C60          H63   1.083       .  S
C61          C75   1.491       .  S
N64          C68   1.371       .  A
N64          C65   1.375       .  A
C65          C66   1.383       .  A
C65         C750   1.466       .  S
C66          C67   1.370       .  A
C66          H69   1.085       .  S
C67          C68   1.376       .  A
C67          H70   1.083       .  S
C68          C82   1.493       .  S
N71          C75   1.354   1_545  A
N71          C72   1.365       .  A
N71          N78   1.404       .  S
C72          C73   1.383       .  A
C72         C747   1.463       .  S
C73          C74   1.381   1_545  A
C73          H76   1.081       .  S
C74          C75   1.380       .  A
C74          H77   1.081       .  S
N78          C82   1.355   1_545  A
N78          C79   1.368       .  A
C79          C80   1.383       .  A
C79         C745   1.468       .  S
C80          C81   1.381   1_545  A
C80          H83   1.081       .  S
C81          C82   1.381       .  A
C81          H84   1.081       .  S
O85         Ni93   1.899       .  S
O85          C95   1.278       .  A
O86         Ni93   1.930       .  S
O86          C96   1.283       .  A
O87         Ni93   1.941       .  S
O87          C97   1.285       .  A
O88         Ni93   1.923       .  S
O88          C98   1.282       .  A
O89         Ni94   1.913       .  S
O89          C98   1.280       .  A
O90         Ni94   1.932       .  S
O90          C97   1.284       .  A
O91         Ni94   1.933       .  S
O91          C96   1.283       .  A
O92         Ni94   1.905       .  S
O92          C95   1.279       .  A
Ni93        Ni94   2.390       .  S
C95         C109   1.447       .  S
C96         C754   1.459       .  S
C97         C743   1.469       .  S
C98         C123   1.467       .  S
O99        Ni107   1.906       .  S
O99         C109   1.279       .  A
O100       Ni107   1.943       .  S
O100        C110   1.286       .  A
O101       Ni107   1.941       .  S
O101        C111   1.286       .  A
O102       Ni107   1.906       .  S
O102        C112   1.278       .  A
O103       Ni108   1.897       .  S
O103        C112   1.278       .  A
O104       Ni108   1.928       .  S
O104        C111   1.283       .  A
O105       Ni108   1.929       .  S
O105        C110   1.283       .  A
O106       Ni108   1.899       .  S
O106        C109   1.278       .  A
Ni107      Ni108   2.392       .  S
C110        C766   1.470       .  S
C111        C741   1.468       .  S
C112        C137   1.447       .  S
O113       Ni121   1.922       .  S
O113        C123   1.282       .  A
O114       Ni121   1.944       .  S
O114        C124   1.285       .  A
O115       Ni121   1.944       .  S
O115        C125   1.286       .  A
O116       Ni121   1.923       .  S
O116        C126   1.282       .  A
O117       Ni122   1.912       .  S
O117        C126   1.280       .  A
O118       Ni122   1.927       .  S
O118        C125   1.282       .  A
O119       Ni122   1.931       .  S
O119        C124   1.283       .  A
O120       Ni122   1.914       .  S
O120        C123   1.281       .  A
Ni121      Ni122   2.388       .  S
C124        C746   1.467       .  S
C125        C755   1.465       .  S
C126        C140   1.467       .  S
O127       Ni135   1.909       .  S
O127        C137   1.280       .  A
O128       Ni135   1.939       .  S
O128        C138   1.284       .  A
O129       Ni135   1.936       .  S
O129        C139   1.285       .  A
O130       Ni135   1.912       .  S
O130        C140   1.280       .  A
O131       Ni136   1.926       .  S
O131        C140   1.283       .  A
O132       Ni136   1.946       .  S
O132        C139   1.286       .  A
O133       Ni136   1.925       .  S
O133        C138   1.282       .  A
O134       Ni136   1.894       .  S
O134        C137   1.277       .  A
Ni135      Ni136   2.390       .  S
C138        C748   1.462       .  S
C139        C768   1.475       .  S
N141        C145   1.370       .  A
N141        C142   1.376       .  A
N141        N148   1.435       .  S
C142        C143   1.385       .  A
C142        C744   1.465       .  S
C143        C144   1.368       .  A
C143        H146   1.085       .  S
C144        C145   1.373       .  A
C144        H147   1.083       .  S
C145        C159   1.489       .  S
N148        C152   1.372       .  A
N148        C149   1.377       .  A
C149        C150   1.383       .  A
C149        C742   1.463       .  S
C150        C151   1.367       .  A
C150        H153   1.085       .  S
C151        C152   1.375       .  A
C151        H154   1.083       .  S
C152        C166   1.490       .  S
N155        C159   1.359       .  A
N155        C156   1.372       .  A
N155        N162   1.413       .  S
C156        C157   1.383       .  A
C156        C739   1.462       .  S
C157        C158   1.376       .  A
C157        H160   1.082       .  S
C158        C159   1.379       .  A
C158        H161   1.081       .  S
N162        C166   1.361       .  A
N162        C163   1.372       .  A
C163        C164   1.382       .  A
C163        C737   1.461       .  S
C164        C165   1.374       .  A
C164        H167   1.082       .  S
C165        C166   1.378       .  A
C165        H168   1.081       .  S
O169       Ni177   1.909       .  S
O169        C179   1.279       .  A
O170       Ni177   1.935       .  S
O170        C180   1.285       .  A
O171       Ni177   1.943       .  S
O171        C181   1.285       .  A
O172       Ni177   1.913       .  S
O172        C182   1.280       .  A
O173       Ni178   1.899       .  S
O173        C182   1.278       .  A
O174       Ni178   1.930       .  S
O174        C181   1.283       .  A
O175       Ni178   1.938       .  S
O175        C180   1.284       .  A
O176       Ni178   1.915       .  S
O176        C179   1.281       .  A
Ni177      Ni178   2.390       .  S
C179        C207   1.459       .  S
C180        C749   1.469       .  S
C181        C736   1.468       .  S
C182        C221   1.452       .  S
O183       Ni191   1.907       .  S
O183        C193   1.279       .  A
O184       Ni191   1.936       .  S
O184        C194   1.283       .  A
O185       Ni191   1.932       .  S
O185        C195   1.284       .  A
O186       Ni191   1.911       .  S
O186        C196   1.280       .  A
O187       Ni192   1.917       .  S
O187        C196   1.281       .  A
O188       Ni192   1.939       .  S
O188        C195   1.284       .  A
O189       Ni192   1.933       .  S
O189        C194   1.284       .  A
O190       Ni192   1.904       .  S
O190        C193   1.279       .  A
Ni191      Ni192   2.390       .  S
C193        C224   1.451       .  S
C194        C740   1.464       .  S
C195        C733   1.467       .  S
C196        C210   1.463       .  S
O197       Ni205   1.913       .  S
O197        C207   1.280       .  A
O198       Ni205   1.936       .  S
O198        C208   1.284       .  A
O199       Ni205   1.945       .  S
O199        C209   1.286       .  A
O200       Ni205   1.920       .  S
O200        C210   1.282       .  A
O201       Ni206   1.910       .  S
O201        C210   1.280       .  A
O202       Ni206   1.933       .  S
O202        C209   1.284       .  A
O203       Ni206   1.930       .  S
O203        C208   1.284       .  A
O204       Ni206   1.911       .  S
O204        C207   1.280       .  A
Ni205      Ni206   2.389       .  S
C208        C738   1.464       .  S
C209        C731   1.470       .  S
O211       Ni219   1.909       .  S
O211        C221   1.279       .  A
O212       Ni219   1.942       .  S
O212        C222   1.286       .  A
O213       Ni219   1.941       .  S
O213        C223   1.286       .  A
O214       Ni219   1.908       .  S
O214        C224   1.279       .  A
O215       Ni220   1.904       .  S
O215        C224   1.278       .  A
O216       Ni220   1.928       .  S
O216        C223   1.283       .  A
O217       Ni220   1.929       .  S
O217        C222   1.283       .  A
O218       Ni220   1.902       .  S
O218        C221   1.279       .  A
Ni219      Ni220   2.391       .  S
C222        C729   1.469       .  S
C223        C752   1.469       .  S
N225        C229   1.372       .  A
N225        C226   1.377       .  A
N225        N232   1.434       .  S
C226        C227   1.384       .  A
C226        C728   1.469       .  S
C227        C228   1.370       .  A
C227        H230   1.084       .  S
C228        C229   1.375       .  A
C228        H231   1.083       .  S
C229        C250   1.495       .  S
N232        C236   1.373       .  A
N232        C233   1.378       .  A
C233        C234   1.383       .  A
C233        C725   1.469       .  S
C234        C235   1.369       .  A
C234        H237   1.085       .  S
C235        C236   1.376       .  A
C235        H238   1.083       .  S
C236        C243   1.496       .  S
N239        C243   1.359       .  A
N239        C240   1.372       .  A
N239        N246   1.409       .  S
C240        C241   1.383       .  A
C240        C732   1.469       .  S
C241        C242   1.379       .  A
C241        H244   1.081       .  S
C242        C243   1.380       .  A
C242        H245   1.081       .  S
N246        C250   1.359       .  A
N246        C247   1.370       .  A
C247        C248   1.383       .  A
C247        C735   1.467       .  S
C248        C249   1.379       .  A
C248        H251   1.081       .  S
C249        C250   1.380       .  A
C249        H252   1.081       .  S
N253        C257   1.370   1_655  A
N253        C254   1.373       .  A
N253        N260   1.433       .  S
C254        C255   1.382       .  A
C254        C734   1.465       .  S
C255        C256   1.370   1_655  A
C255        H258   1.084       .  S
C256        C257   1.377       .  A
C256        H259   1.083       .  S
C257        C271   1.493       .  S
N260        C264   1.369   1_655  A
N260        C261   1.373       .  A
C261        C262   1.383       .  A
C261        C730   1.467       .  S
C262        C263   1.372   1_655  A
C262        H265   1.085       .  S
C263        C264   1.376       .  A
C263        H266   1.083       .  S
C264        C278   1.493       .  S
N267        C271   1.351       .  A
N267        C268   1.363       .  A
N267        N274   1.400       .  S
C268        C269   1.383       .  A
C268        C724   1.465       .  S
C269        C270   1.384       .  A
C269        H272   1.082       .  S
C270        C271   1.382       .  A
C270        H273   1.081       .  S
N274        C278   1.351       .  A
N274        C275   1.361       .  A
C275        C276   1.384       .  A
C275        C721   1.465       .  S
C276        C277   1.385       .  A
C276        H279   1.081       .  S
C277        C278   1.382       .  A
C277        H280   1.081       .  S
N281        C285   1.373       .  A
N281        C282   1.374       .  A
N281        N288   1.434       .  S
C282        C283   1.383       .  A
C282        C720   1.460       .  S
C283        C284   1.369       .  A
C283        H286   1.084       .  S
C284        C285   1.376       .  A
C284        H287   1.083       .  S
C285        C299   1.493   1_556  S
N288        C292   1.368       .  A
N288        C289   1.377       .  A
C289        C290   1.385       .  A
C289        C718   1.470       .  S
C290        C291   1.370       .  A
C290        H293   1.085       .  S
C291        C292   1.372       .  A
C291        H294   1.083       .  S
C292        C306   1.489       .  S
N295        C299   1.360       .  A
N295        C296   1.373       .  A
N295        N302   1.412       .  S
C296        C297   1.382       .  A
C296        C715   1.466       .  S
C297        C298   1.376       .  A
C297        H300   1.082       .  S
C298        C299   1.379       .  A
C298        H301   1.081   1_554  S
N302        C306   1.360   1_554  A
N302        C303   1.370       .  A
C303        C304   1.383       .  A
C303        C713   1.461       .  S
C304        C305   1.377       .  A
C304        H307   1.082       .  S
C305        C306   1.378   1_554  A
C305        H308   1.081   1_554  S
O309       Ni317   1.904       .  S
O309        C319   1.279       .  A
O310       Ni317   1.925       .  S
O310        C320   1.282       .  A
O311       Ni317   1.931       .  S
O311        C321   1.284       .  A
O312       Ni317   1.915       .  S
O312        C322   1.281       .  A
O313       Ni318   1.912       .  S
O313        C322   1.280       .  A
O314       Ni318   1.936       .  S
O314        C321   1.283       .  A
O315       Ni318   1.943       .  S
O315        C320   1.285       .  A
O316       Ni318   1.920       .  S
O316        C319   1.281       .  A
Ni317      Ni318   2.390       .  S
C319        C336   1.459       .  S
C320        C723   1.463       .  S
C321        C714   1.463       .  S
C322        C350   1.462       .  S
O323       Ni331   1.903       .  S
O323        C333   1.279       .  A
O324       Ni331   1.933       .  S
O324        C334   1.283       .  A
O325       Ni331   1.933       .  S
O325        C335   1.284       .  A
O326       Ni331   1.904       .  S
O326        C336   1.279       .  A
O327       Ni332   1.920       .  S
O327        C336   1.281       .  A
O328       Ni332   1.946       .  S
O328        C335   1.287       .  A
O329       Ni332   1.939       .  S
O329        C334   1.286       .  A
O330       Ni332   1.909       .  S
O330        C333   1.279       .  A
Ni331      Ni332   2.390       .  S
C333        C361   1.451       .  S
C334        C716   1.468       .  S
C335        C727   1.473       .  S
O337       Ni345   1.906       .  S
O337        C347   1.280       .  A
O338       Ni345   1.925       .  S
O338        C348   1.281       .  A
O339       Ni345   1.927       .  S
O339        C349   1.283       .  A
O340       Ni345   1.913       .  S
O340        C350   1.280       .  A
O341       Ni346   1.915       .  S
O341        C350   1.280       .  A
O342       Ni346   1.936       .  S
O342        C349   1.284       .  A
O343       Ni346   1.943       .  S
O343        C348   1.286       .  A
O344       Ni346   1.923       .  S
O344        C347   1.281       .  A
Ni345      Ni346   2.390       .  S
C347        C364   1.463       .  S
C348        C722   1.462       .  S
C349        C711   1.460       .  S
O351       Ni359   1.914       .  S
O351        C361   1.281       .  A
O352       Ni359   1.942       .  S
O352        C362   1.285       .  A
O353       Ni359   1.932       .  S
O353        C363   1.284       .  A
O354       Ni359   1.904       .  S
O354        C364   1.279       .  A
O355       Ni360   1.926       .  S
O355        C364   1.282       .  A
O356       Ni360   1.948       .  S
O356        C363   1.287       .  A
O357       Ni360   1.928       .  S
O357        C362   1.283       .  A
O358       Ni360   1.896       .  S
O358        C361   1.277       .  A
Ni359      Ni360   2.389       .  S
C362        C710   1.466       .  S
C363        C726   1.474       .  S
N365        C369   1.368       .  A
N365        C366   1.374       .  A
N365        N372   1.434       .  S
C366        C367   1.384       .  A
C366        C708   1.466       .  S
C367        C368   1.370       .  A
C367        H370   1.084       .  S
C368        C369   1.375       .  A
C368        H371   1.083       .  S
C369        C390   1.488       .  S
N372        C376   1.375       .  A
N372        C373   1.376       .  A
C373        C374   1.381       .  A
C373        C705   1.466       .  S
C374        C375   1.370       .  A
C374        H377   1.084       .  S
C375        C376   1.379       .  A
C375        H378   1.083       .  S
C376        C383   1.499       .  S
N379        C383   1.355       .  A
N379        C380   1.366       .  A
N379        N386   1.403       .  S
C380        C381   1.382       .  A
C380        C709   1.468       .  S
C381        C382   1.382       .  A
C381        H384   1.081       .  S
C382        C383   1.383       .  A
C382        H385   1.081       .  S
N386        C390   1.351       .  A
N386        C387   1.364       .  A
C387        C388   1.383       .  A
C387        C712   1.462       .  S
C388        C389   1.382       .  A
C388        H391   1.081       .  S
C389        C390   1.381       .  A
C389        H392   1.081       .  S
O393       Ni401   1.906       .  S
O393        C403   1.278       .  A
O394       Ni401   1.932       .  S
O394        C404   1.284       .  A
O395       Ni401   1.942       .  S
O395        C405   1.285       .  A
O396       Ni401   1.917       .  S
O396        C406   1.282       .  A
O397       Ni402   1.907       .  S
O397        C406   1.278       .  A
O398       Ni402   1.931       .  S
O398        C405   1.284       .  A
O399       Ni402   1.935       .  S
O399        C404   1.283       .  A
O400       Ni402   1.908       .  S
O400        C403   1.280       .  A
Ni401      Ni402   2.390       .  S
C403        C448   1.452       .  S
C404        C703   1.465       .  S
C405        C707   1.469       .  S
C406        C431   1.460       .  S
O407       Ni415   1.911       .  S
O407        C417   1.279       .  A
O408       Ni415   1.937       .  S
O408        C418   1.285       .  A
O409       Ni415   1.936       .  S
O409        C419   1.284       .  A
O410       Ni415   1.906       .  S
O410        C420   1.280       .  A
O411       Ni416   1.908       .  S
O411        C420   1.278       .  A
O412       Ni416   1.936       .  S
O412        C419   1.285       .  A
O413       Ni416   1.942       .  S
O413        C418   1.285       .  A
O414       Ni416   1.915       .  S
O414        C417   1.281       .  A
Ni415      Ni416   2.390       .  S
C417        C445   1.460       .  S
C418        C717   1.473       .  S
C419        C701   1.468       .  S
C420        C434   1.453       .  S
O421       Ni429   1.907       .  S
O421        C431   1.278       .  A
O422       Ni429   1.930       .  S
O422        C432   1.283       .  A
O423       Ni429   1.938       .  S
O423        C433   1.284       .  A
O424       Ni429   1.915       .  S
O424        C434   1.281       .  A
O425       Ni430   1.897       .  S
O425        C434   1.277       .  A
O426       Ni430   1.923       .  S
O426        C433   1.281       .  A
O427       Ni430   1.938       .  S
O427        C432   1.285       .  A
O428       Ni430   1.917       .  S
O428        C431   1.282       .  A
Ni429      Ni430   2.391       .  S
C432        C719   1.464       .  S
C433        C699   1.459       .  S
O435       Ni443   1.910       .  S
O435        C445   1.279       .  A
O436       Ni443   1.937       .  S
O436        C446   1.285       .  A
O437       Ni443   1.941       .  S
O437        C447   1.285       .  A
O438       Ni443   1.914       .  S
O438        C448   1.281       .  A
O439       Ni444   1.898       .  S
O439        C448   1.277       .  A
O440       Ni444   1.926       .  S
O440        C447   1.282       .  A
O441       Ni444   1.939       .  S
O441        C446   1.284       .  A
O442       Ni444   1.915       .  S
O442        C445   1.281       .  A
Ni443      Ni444   2.390       .  S
C446        C706   1.470       .  S
C447        C698   1.464       .  S
O449       Ni457   1.903       .  S
O449        C459   1.279       .  A
O450       Ni457   1.935       .  S
O450        C460   1.285       .  A
O451       Ni457   1.941       .  S
O451        C461   1.285       .  A
O452       Ni457   1.917       .  S
O452        C462   1.281       .  A
O453       Ni458   1.910       .  S
O453        C462   1.280       .  A
O454       Ni458   1.937       .  S
O454        C461   1.285       .  A
O455       Ni458   1.944       .  S
O455        C460   1.286       .  A
O456       Ni458   1.913       .  S
O456        C459   1.280       .  A
Ni457      Ni458   2.389       .  S
C459        C501   1.454       .  S
C460        C762   1.473       .  S
C461        C695   1.474       .  S
C462        C487   1.461       .  S
O463       Ni471   1.913       .  S
O463        C473   1.280       .  A
O464       Ni471   1.938       .  S
O464        C474   1.284       .  A
O465       Ni471   1.928       .  S
O465        C475   1.283       .  A
O466       Ni471   1.907       .  S
O466        C476   1.279       .  A
O467       Ni472   1.923       .  S
O467        C476   1.282       .  A
O468       Ni472   1.941       .  S
O468        C475   1.285       .  A
O469       Ni472   1.928       .  S
O469        C474   1.283       .  A
O470       Ni472   1.899       .  S
O470        C473   1.278       .  A
Ni471      Ni472   2.390       .  S
C473        C504   1.451       .  S
C474        C693   1.463       .  S
C475        C760   1.466       .  S
C476        C490   1.463       .  S
O477       Ni485   1.917       .  S
O477        C487   1.281       .  A
O478       Ni485   1.942       .  S
O478        C488   1.285       .  A
O479       Ni485   1.944       .  S
O479        C489   1.285       .  A
O480       Ni485   1.920       .  S
O480        C490   1.281       .  A
O481       Ni486   1.911       .  S
O481        C490   1.280       .  A
O482       Ni486   1.931       .  S
O482        C489   1.283       .  A
O483       Ni486   1.929       .  S
O483        C488   1.283       .  A
O484       Ni486   1.910       .  S
O484        C487   1.280       .  A
Ni485      Ni486   2.389       .  S
C488        C692   1.465       .  S
C489        C764   1.468       .  S
O491       Ni499   1.911       .  S
O491        C501   1.280       .  A
O492       Ni499   1.943       .  S
O492        C502   1.286       .  A
O493       Ni499   1.942       .  S
O493        C503   1.286       .  A
O494       Ni499   1.911       .  S
O494        C504   1.280       .  A
O495       Ni500   1.899       .  S
O495        C504   1.278       .  A
O496       Ni500   1.924       .  S
O496        C503   1.282       .  A
O497       Ni500   1.927       .  S
O497        C502   1.283       .  A
O498       Ni500   1.903       .  S
O498        C501   1.279       .  A
Ni499      Ni500   2.391       .  S
C502        C758   1.468       .  S
C503        C689   1.465       .  S
N505        C509   1.373       .  A
N505        C506   1.378       .  A
N505        N512   1.435       .  S
C506        C507   1.384       .  A
C506        C687   1.465       .  S
C507        C508   1.368       .  A
C507        H510   1.085       .  S
C508        C509   1.374       .  A
C508        H511   1.083       .  S
C509        C530   1.492       .  S
N512        C516   1.370       .  A
N512        C513   1.376       .  A
C513        C514   1.386       .  A
C513        C685   1.466       .  S
C514        C515   1.368       .  A
C514        H517   1.085       .  S
C515        C516   1.372       .  A
C515        H518   1.083       .  S
C516        C523   1.489       .  S
N519        C523   1.359       .  A
N519        C520   1.369       .  A
N519        N526   1.411       .  S
C520        C521   1.383       .  A
C520        C697   1.463       .  S
C521        C522   1.378       .  A
C521        H524   1.081       .  S
C522        C523   1.378       .  A
C522        H525   1.082       .  S
N526        C530   1.359       .  A
N526        C527   1.372       .  A
C527        C528   1.382       .  A
C527        C702   1.466       .  S
C528        C529   1.377       .  A
C528        H531   1.081       .  S
C529        C530   1.379       .  A
C529        H532   1.081       .  S
N533        C537   1.354       .  A
N533        C534   1.369       .  A
N533        N540   1.408       .  S
C534        C535   1.383       .  A
C534        C704   1.465       .  S
C535        C536   1.379       .  A
C535        H538   1.081       .  S
C536        C537   1.379       .  A
C536        H539   1.081       .  S
C537        C551   1.488       .  S
N540        C544   1.358       .  A
N540        C541   1.367       .  A
C541        C542   1.382       .  A
C541        C700   1.460       .  S
C542        C543   1.378       .  A
C542        H545   1.081       .  S
C543        C544   1.380       .  A
C543        H546   1.081       .  S
C544        C558   1.491       .  S
N547        C551   1.369   1_545  A
N547        C548   1.376       .  A
N547        N554   1.435       .  S
C548        C549   1.385       .  A
C548        C683   1.467       .  S
C549        C550   1.369   1_545  A
C549        H552   1.085       .  S
C550        C551   1.373       .  A
C550        H553   1.083       .  S
N554        C558   1.372   1_545  A
N554        C555   1.374       .  A
C555        C556   1.383       .  A
C555        C682   1.462       .  S
C556        C557   1.369   1_545  A
C556        H559   1.085       .  S
C557        C558   1.376       .  A
C557        H560   1.083       .  S
N561        C565   1.370   1_655  A
N561        C562   1.373       .  A
N561        N568   1.435       .  S
C562        C563   1.385       .  A
C562        C690   1.462       .  S
C563        C564   1.369   1_655  A
C563        H566   1.085       .  S
C564        C565   1.373       .  A
C564        H567   1.083       .  S
C565        C579   1.489       .  S
N568        C572   1.371   1_655  A
N568        C569   1.379       .  A
C569        C570   1.384       .  A
C569        C696   1.469       .  S
C570        C571   1.369   1_655  A
C570        H573   1.085       .  S
C571        C572   1.373       .  A
C571        H574   1.083       .  S
C572        C586   1.490       .  S
N575        C579   1.359       .  A
N575        C576   1.370       .  A
N575        N582   1.412       .  S
C576        C577   1.383       .  A
C576        C679   1.462       .  S
C577        C578   1.376       .  A
C577        H580   1.081       .  S
C578        C579   1.378       .  A
C578        H581   1.081       .  S
N582        C586   1.360       .  A
N582        C583   1.372       .  A
C583        C584   1.382       .  A
C583        C678   1.464       .  S
C584        C585   1.376       .  A
C584        H587   1.081       .  S
C585        C586   1.378       .  A
C585        H588   1.081       .  S
O589       Ni597   1.914       .  S
O589        C599   1.281       .  A
O590       Ni597   1.938       .  S
O590        C600   1.284       .  A
O591       Ni597   1.933       .  S
O591        C601   1.284       .  A
O592       Ni597   1.904       .  S
O592        C602   1.278       .  A
O593       Ni598   1.906       .  S
O593        C602   1.279       .  A
O594       Ni598   1.936       .  S
O594        C601   1.284       .  A
O595       Ni598   1.937       .  S
O595        C600   1.285       .  A
O596       Ni598   1.916       .  S
O596        C599   1.280       .  A
Ni597      Ni598   2.390       .  S
C599        C613   1.463       .  S
C600        C684   1.471       .  S
C601        C677   1.465       .  S
C602        C644   1.450       .  S
O603       Ni611   1.919       .  S
O603        C613   1.281       .  A
O604       Ni611   1.940       .  S
O604        C614   1.285       .  A
O605       Ni611   1.930       .  S
O605        C615   1.283       .  A
O606       Ni611   1.904       .  S
O606        C616   1.278       .  A
O607       Ni612   1.911       .  S
O607        C616   1.280       .  A
O608       Ni612   1.937       .  S
O608        C615   1.284       .  A
O609       Ni612   1.935       .  S
O609        C614   1.285       .  A
O610       Ni612   1.912       .  S
O610        C613   1.280       .  A
Ni611      Ni612   2.390       .  S
C614        C688   1.470       .  S
C615        C680   1.464       .  S
C616        C630   1.454       .  S
O617       Ni625   1.903       .  S
O617        C627   1.279       .  A
O618       Ni625   1.940       .  S
O618        C628   1.285       .  A
O619       Ni625   1.943       .  S
O619        C629   1.286       .  A
O620       Ni625   1.909       .  S
O620        C630   1.279       .  A
O621       Ni626   1.907       .  S
O621        C630   1.279       .  A
O622       Ni626   1.934       .  S
O622        C629   1.284       .  A
O623       Ni626   1.930       .  S
O623        C628   1.283       .  A
O624       Ni626   1.900       .  S
O624        C627   1.278       .  A
Ni625      Ni626   2.391       .  S
C627        C641   1.447       .  S
C628        C686   1.469       .  S
C629        C676   1.474       .  S
O631       Ni639   1.905       .  S
O631        C641   1.279       .  A
O632       Ni639   1.939       .  S
O632        C642   1.285       .  A
O633       Ni639   1.935       .  S
O633        C643   1.284       .  A
O634       Ni639   1.904       .  S
O634        C644   1.278       .  A
O635       Ni640   1.907       .  S
O635        C644   1.279       .  A
O636       Ni640   1.930       .  S
O636        C643   1.284       .  A
O637       Ni640   1.927       .  S
O637        C642   1.283       .  A
O638       Ni640   1.900       .  S
O638        C641   1.277       .  A
Ni639      Ni640   2.392       .  S
C642        C681   1.465       .  S
C643        C673   1.466       .  S
N645        C649   1.355       .  A
N645        C646   1.366       .  A
N645        N652   1.406       .  S
C646        C647   1.383       .  A
C646        C694   1.464       .  S
C647        C648   1.381       .  A
C647        H650   1.082       .  S
C648        C649   1.381       .  A
C648        H651   1.082       .  S
C649        C663   1.492       .  S
N652        C656   1.356       .  A
N652        C653   1.367       .  A
C653        C654   1.383       .  A
C653        C691   1.465       .  S
C654        C655   1.380       .  A
C654        H657   1.082       .  S
C655        C656   1.380       .  A
C655        H658   1.081       .  S
C656        C670   1.492       .  S
N659        C663   1.372       .  A
N659        C660   1.375       .  A
N659        N666   1.435       .  S
C660        C661   1.383       .  A
C660        C674   1.462       .  S
C661        C662   1.368       .  A
C661        H664   1.085       .  S
C662        C663   1.375       .  A
C662        H665   1.083       .  S
N666        C670   1.370       .  A
N666        C667   1.377       .  A
C667        C668   1.384       .  A
C667        C675   1.470       .  S
C668        C669   1.370       .  A
C668        H671   1.085       .  S
C669        C670   1.375       .  A
C669        H672   1.083       .  S
C673        C674   1.225       .  T
C675        C676   1.229       .  T
C677        C678   1.224       .  T
C679        C680   1.223       .  T
C681        C682   1.225       .  T
C683        C684   1.228       .  T
C685        C686   1.227       .  T
C687        C688   1.227       .  T
C689        C690   1.225       .  T
C691        C692   1.224       .  T
C693        C694   1.223       .  T
C695        C696   1.229       .  T
C697        C698   1.223       .  T
C699        C700   1.221       .  T
C701        C702   1.226       .  T
C703        C704   1.224       .  T
C705        C706   1.227       .  T
C707        C708   1.227       .  T
C709        C710   1.225       .  T
C711        C712   1.222       .  T
C713        C714   1.223       .  T
C715        C716   1.226       .  T
C717        C718   1.229       .  T
C719        C720   1.224       .  T
C721        C722   1.223       .  T
C723        C724   1.223       .  T
C725        C726   1.229       .  T
C727        C728   1.229       .  T
C729        C730   1.227       .  T
C731        C732   1.227       .  T
C733        C734   1.225       .  T
C735        C736   1.226       .  T
C737        C738   1.223       .  T
C739        C740   1.224       .  T
C741        C742   1.226       .  T
C743        C744   1.227       .  T
C745        C746   1.225       .  T
C747        C748   1.222       .  T
C749        C750   1.227       .  T
C751        C752   1.227       .  T
C753        C754   1.221       .  T
C755        C756   1.224       .  T
C757        C758   1.226       .  T
C759        C760   1.225       .  T
C761        C762   1.228       .  T
C763        C764   1.226       .  T
C765        C766   1.228       .  T
C767        C768   1.230       .  T
