geometry optimzed in LAMMPS
_audit_creation_date              2020-12-01 
_audit_creation_method            'lammps2cif' 
_symmetry_space_group_name_H-M    'P1' 
_symmetry_Int_Tables_number       1 
_symmetry_cell_setting            triclinic 
loop_ 
_symmetry_equiv_pos_as_xyz 
  x,y,z 
_cell_length_a                    32.79461293 
_cell_length_b                    32.94641786935492 
_cell_length_c                    25.961893700547137 
_cell_angle_alpha                 91.81386074306879 
_cell_angle_beta                  89.22990028688724 
_cell_angle_gamma                 120.11462579664853 
loop_ 
_atom_site_label 
_atom_site_type_symbol 
_atom_site_fract_x 
_atom_site_fract_y 
_atom_site_fract_z 
_atom_site_charge 
C1          C  0.67551111  0.34519543  0.08505694     0.30100
C2          C  0.67403716  0.33806606  0.97895527     0.30100
C3          C  0.69819461  0.31833962  0.06028410    -0.06100
C4          C  0.62657174  0.32166880  0.05952012    -0.06900
C5          C  0.70031856  0.39237132  0.05636775    -0.06800
C6          C  0.69639727  0.31350548  0.00684329    -0.06100
C7          C  0.62550119  0.31662080  0.00584630    -0.06900
C8          C  0.69983057  0.38800194  0.00254845    -0.06800
C9          C  0.71505858  0.28521493  0.99363068    -0.32200
N10         N  0.73026278  0.27512559  0.03718671     0.14300
C11         C  0.71958985  0.29470797  0.07813211    -0.32200
H12         H  0.72649045  0.29158216  0.11803024     0.16300
C13         C  0.57857586  0.29043251  0.99198635    -0.31100
N14         N  0.55194027  0.28213717  0.03488195     0.13100
C15         C  0.58065175  0.30126111  0.07634327    -0.31100
C16         C  0.71772817  0.43198294  0.98285438    -0.31400
N17         N  0.72808049  0.46316280  0.02263840     0.13600
H18         H  0.72156321  0.44058047  0.94251698     0.16200
C19         C  0.71683354  0.43964036  0.06738295    -0.31400
H20         H  0.71945224  0.45620341  0.10467313     0.16200
H21         H  0.56883335  0.29997945  0.11567717     0.16200
H22         H  0.71823162  0.27343524  0.95518377     0.16300
H23         H  0.56416164  0.27670437  0.95403115     0.16200
C24         C  0.66401908  0.33315671  0.47987999     0.30100
C25         C  0.66812730  0.33488590  0.58591183     0.30100
C26         C  0.69060094  0.31056025  0.50372261    -0.06100
C27         C  0.68665780  0.38172211  0.50688494    -0.06900
C28         C  0.61573802  0.30706223  0.50810613    -0.06800
C29         C  0.69333956  0.31274478  0.55710879    -0.06100
C30         C  0.68855915  0.38298822  0.56049070    -0.06900
C31         C  0.61828337  0.30909226  0.56209916    -0.06800
C32         C  0.71984359  0.29334912  0.57144800    -0.32200
N33         N  0.73294452  0.27843628  0.52840794     0.14300
C34         C  0.71428293  0.28770416  0.48688962    -0.32200
H35         H  0.71742705  0.27823107  0.44736921     0.16300
C36         C  0.70305949  0.42873513  0.57607996    -0.31100
N37         N  0.71161576  0.45510777  0.53385861     0.13100
C38         C  0.70110109  0.42644398  0.49140954    -0.31100
C39         C  0.57286021  0.28666708  0.58070179    -0.31400
N40         N  0.54275534  0.26954051  0.54015610     0.13600
H41         H  0.56226704  0.28329908  0.62069825     0.16200
C42         C  0.56816934  0.28099315  0.49587243    -0.31400
H43         H  0.55254622  0.26971834  0.45799666     0.16200
H44         H  0.70267711  0.43709133  0.45207811     0.16200
H45         H  0.72922316  0.29062121  0.61048534     0.16300
H46         H  0.70658125  0.44206460  0.61521980     0.16200
C47         C  0.33721153  0.67444626  0.01880236     0.30100
C48         C  0.33360760  0.66779457  0.91269806     0.30100
C49         C  0.30921603  0.69439911  0.99239862    -0.06100
C50         C  0.38501155  0.70140545  0.99088658    -0.06900
C51         C  0.31556235  0.62478374  0.99422730    -0.06800
C52         C  0.30741115  0.69032110  0.93877404    -0.06100
C53         C  0.38354577  0.69649552  0.93720225    -0.06900
C54         C  0.31433281  0.62141663  0.94068359    -0.06800
C55         C  0.28375316  0.71162944  0.92135069    -0.32200
N56         N  0.27203641  0.73002047  0.96243947     0.14300
C57         C  0.28795058  0.72044310  0.00590102    -0.32200
H58         H  0.28585796  0.73351804  0.04399209     0.16300
C59         C  0.42996759  0.71709285  0.92111815    -0.31100
N60         N  0.45897015  0.73837777  0.96216442     0.13100
C61         C  0.43171789  0.72928173  0.00487863    -0.31100
C62         C  0.29380980  0.57452930  0.92712855    -0.31400
N63         N  0.28102527  0.54924486  0.97072246     0.13600
H64         H  0.28764388  0.55971377  0.88833656     0.16200
C65         C  0.29486993  0.57978587  0.01193434    -0.31400
H66         H  0.29059980  0.57019046  0.05192972     0.16200
H67         H  0.44505238  0.74150978  0.04353411     0.16200
H68         H  0.27590373  0.71379335  0.88152454     0.16300
H69         H  0.44217846  0.71474506  0.88287139     0.16200
C70         C  0.32908050  0.65622318  0.41228038     0.30100
C71         C  0.32570013  0.65349492  0.51806789     0.30100
C72         C  0.29703659  0.67215425  0.43875028    -0.06100
C73         C  0.30908139  0.60683897  0.43518586    -0.06900
C74         C  0.37610602  0.68469012  0.44082851    -0.06800
C75         C  0.29516139  0.67096798  0.49232119    -0.06100
C76         C  0.30781789  0.60556238  0.48927886    -0.06900
C77         C  0.37452297  0.68352274  0.49408622    -0.06800
C78         C  0.26419376  0.68608633  0.50761433    -0.32200
N79         N  0.24827188  0.69709051  0.46505213     0.14300
C80         C  0.26768224  0.68794521  0.42292285    -0.32200
H81         H  0.26157544  0.69335621  0.38352510     0.16300
C82         C  0.27733088  0.55943727  0.50176939    -0.31100
N83         N  0.26159042  0.53245639  0.45805259     0.13100
C84         C  0.27789232  0.56151096  0.41766493    -0.31100
C85         C  0.42055440  0.70730872  0.51147436    -0.31400
N86         N  0.44977729  0.72284892  0.47008638     0.13600
H87         H  0.43200327  0.71148355  0.55117222     0.14200
C88         C  0.42282876  0.70928486  0.42673531    -0.31400
H89         H  0.43619183  0.71612169  0.38773804     0.16200
H90         H  0.26479065  0.55064077  0.37876796     0.16200
H91         H  0.25526547  0.69041995  0.54687883     0.16300
H92         H  0.26526432  0.54649166  0.53987022     0.16200
O93         O  0.06612156  0.98572445  0.02941014    -0.88300
C94         C  0.08141625  0.07861687  0.92075844     0.87800
Mg95       Mg  0.01323094  0.91293739  0.02328116     1.58100
O96         O  0.02686625  0.08657217  0.03573485    -0.88000
O97         O  0.08729573  0.04536992  0.08322110    -0.75300
C98         C  0.81400094  0.90872115  0.96861486     0.92800
O99         O  0.04776573  0.96735721  0.90788426    -0.75100
O100        O  0.83392701  0.88424237  0.96203347    -0.82700
Mg101      Mg  0.10911503  0.01508068  0.96250049     1.58000
C102        C  0.90684441  0.09908648  0.02679959     0.92700
O103        O  0.17749954  0.06459909  0.00839452    -0.80900
H104        H  0.02879502  0.09697334  0.11215956    -0.06300
C105        C  0.93698538  0.01077725  0.91808956     0.87700
O106        O  0.96440547  0.92520903  0.07751028    -0.75400
O107        O  0.08839420  0.06728150  0.96320361    -0.88200
O108        O  0.94965799  0.11986206  0.01190523    -0.81000
C109        C  0.09937103  0.19806899  0.97931262     0.92800
C110        C  0.19865435  0.10742668  0.02446323     0.92700
Mg111      Mg  0.90473362  0.99936093  0.02904358     1.58000
O112        O  0.83760919  0.95204940  0.98181762    -0.80900
O113        O  0.96517522  0.04667866  0.08436417    -0.75200
O114        O  0.11928165  0.17581509  0.99435589    -0.81000
O115        O  0.12993795  0.95882966  0.96092885    -0.82700
O116        O  0.89317285  0.83785248  0.99827788    -0.81000
C117        C  0.00795734  0.07813324  0.07856984     0.87100
O118        O  0.92523187  0.94704625  0.02888401    -0.88200
O119        O  0.94778223  0.02846602  0.96198324    -0.88300
O120        O  0.92474745  0.96809845  0.90883576    -0.75300
Mg121      Mg  0.09996807  0.10737369  0.03403715     1.58000
O122        O  0.05510517  0.17784976  0.97222603    -0.82700
H123        H  0.07471890  0.98140710  0.10472359    -0.06400
O124        O  0.98540948  0.92740512  0.95580346    -0.88000
H125        H  0.98406252  0.91798564  0.87924382    -0.06300
H126        H  0.91334371  0.93781618  0.10449984    -0.06400
C127        C  0.00468890  0.93629917  0.91313566     0.87100
C128        C  0.07642286  0.00312033  0.07346638     0.87700
C129        C  0.93291826  0.93630050  0.07137746     0.87700
H130        H  0.93911046  0.03245594  0.88660171    -0.06400
O131        O  0.04990816  0.08961430  0.91432684    -0.75400
Mg132      Mg  0.91181592  0.90622510  0.95843535     1.58000
H133        H  0.10164197  0.07772625  0.88795025    -0.06400
C134        C  0.10486307  0.91431148  0.96321775     0.92700
O135        O  0.95767250  0.83593828  0.01869509    -0.82700
C136        C  0.91335223  0.81537704  0.01185279     0.92800
O137        O  0.17660774  0.12957559  0.03202805    -0.82700
Mg138      Mg  0.99986612  0.10121976  0.96758148     1.58200
O139        O  0.06175221  0.89422653  0.97666590    -0.81000
O140        O  0.88328414  0.05475702  0.03080655    -0.82700
O141        O  0.97986557  0.05577314  0.47080475    -0.88300
C142        C  0.06916607  0.06665839  0.58715690     0.87800
Mg143      Mg  0.90582673  0.00682322  0.47226352     1.58100
O144        O  0.07825376  0.01037533  0.47407805    -0.88000
O145        O  0.04158449  0.07251302  0.42284801    -0.75300
C146        C  0.88966970  0.80644174  0.53408313     0.92800
O147        O  0.95746234  0.04215247  0.59364447    -0.75100
O148        O  0.86931585  0.83028968  0.54151470    -0.82700
Mg149      Mg  0.00905790  0.09889676  0.53998459     1.58000
C150        C  0.08120771  0.88427004  0.48462835     0.92700
O151        O  0.05982372  0.16238794  0.49449036    -0.80900
H152        H  0.09145283  0.01071639  0.39865746    -0.06300
C153        C  0.99731876  0.92693491  0.58838362     0.87700
O154        O  0.91509994  0.95336231  0.42216752    -0.75400
O155        O  0.05857435  0.07363909  0.54411538    -0.88200
O156        O  0.10422201  0.92744611  0.49930414    -0.81000
C157        C  0.18971775  0.07873476  0.53522533     0.92800
C158        C  0.10284703  0.18334041  0.48099795     0.92700
Mg159      Mg  0.98531641  0.89070388  0.47608553     1.58000
O160        O  0.93209620  0.82508273  0.51842715    -0.80900
O161        O  0.03751330  0.94902279  0.42353045    -0.75200
O162        O  0.16892211  0.10116687  0.52330303    -0.81000
O163        O  0.95703058  0.12573867  0.53652369    -0.82700
O164        O  0.82643280  0.88942910  0.49901865    -0.81000
C165        C  0.07050618  0.99102639  0.43098593     0.87100
O166        O  0.93662582  0.91647010  0.47382953    -0.88200
O167        O  0.01572869  0.93303924  0.54531902    -0.88300
O168        O  0.95584293  0.91998509  0.59471378    -0.75300
Mg169      Mg  0.10179990  0.08421434  0.47699958     1.58000
O170        O  0.16762975  0.03433879  0.53905715    -0.82700
H171        H  0.97946810  0.06176445  0.39444138    -0.06400
O172        O  0.91754631  0.98090389  0.54277514    -0.88000
H173        H  0.90266660  0.98074927  0.61772095    -0.06300
H174        H  0.92576797  0.90011311  0.39859705    -0.06400
C175        C  0.92433122  0.00035809  0.58574591     0.87100
C176        C  0.99934552  0.06368618  0.42823064     0.87700
C177        C  0.92549822  0.92190095  0.43046918     0.87700
H178        H  0.01778047  0.92933922  0.62184607    -0.06400
O179        O  0.08006192  0.03518968  0.59397890    -0.75400
Mg180      Mg  0.89472825  0.90765913  0.54201738     1.58000
H181        H  0.06845366  0.08733944  0.61996003    -0.06400
C182        C  0.91309925  0.10490778  0.52646646     0.92700
O183        O  0.82763270  0.95413287  0.47500103    -0.82700
C184        C  0.80524289  0.91039313  0.48356836     0.92800
O185        O  0.12658700  0.16240369  0.47817235    -0.82700
Mg186      Mg  0.08963565  0.98211902  0.54225627     1.58200
O187        O  0.89062541  0.06215643  0.51049779    -0.81000
O188        O  0.03672813  0.86334876  0.47797419    -0.82700
C189        C  0.12541871  0.23401880  0.47062943    -0.19800
C190        C  0.17334045  0.26545972  0.48247590     0.36400
C191        C  0.19171457  0.31379032  0.47671045    -0.25800
C192        C  0.16317286  0.33128414  0.46012317     0.02900
C193        C  0.11580357  0.30009786  0.44668886     0.27700
C194        C  0.09730105  0.25172969  0.45244984    -0.24900
N195        N  0.20272500  0.24857046  0.50212155    -0.82300
H196        H  0.22824743  0.33820401  0.48646746     0.13500
C197        C  0.18400663  0.38259268  0.45745502     0.02800
N198        N  0.08715668  0.31745582  0.42600052    -0.80900
H199        H  0.06062463  0.22770125  0.44291996     0.18300
C200        C  0.21360245  0.40577594  0.41617573    -0.25700
C201        C  0.23941045  0.45502563  0.41538709     0.36300
C202        C  0.23332092  0.48172779  0.45555574    -0.19700
C203        C  0.20248878  0.45789947  0.49627476    -0.25000
C204        C  0.17898952  0.40873337  0.49845573     0.27700
H205        H  0.21840392  0.38525319  0.38576190     0.13500
N206        N  0.27360149  0.47773990  0.37549506    -0.82200
H207        H  0.19767072  0.47767391  0.52740828     0.18300
N208        N  0.15267734  0.38552391  0.54360353    -0.80800
H209        H  0.27344740  0.45303841  0.34904456     0.33900
H210        H  0.30690789  0.49475101  0.39283186     0.38400
H211        H  0.15440840  0.41004811  0.57136327     0.33900
H212        H  0.11725314  0.36482256  0.53330333     0.30600
H213        H  0.05342666  0.28966036  0.41694712     0.33900
H214        H  0.08268438  0.33789851  0.45453020     0.30600
H215        H  0.18984691  0.23501157  0.53843869     0.38500
H216        H  0.23720363  0.27623944  0.50786593     0.34000
C217        C  0.50059646  0.74854559  0.47201956    -0.19800
C218        C  0.52758911  0.73664242  0.43862716     0.36400
C219        C  0.57707666  0.76354212  0.44043264    -0.25800
C220        C  0.60028540  0.80110325  0.47612073     0.02900
C221        C  0.57329045  0.81201190  0.51071833     0.27700
C222        C  0.52376779  0.78585182  0.50798413    -0.24900
N223        N  0.50466286  0.69661310  0.40391807    -0.82300
H224        H  0.59774229  0.75504772  0.41400379     0.13500
C225        C  0.65280659  0.82863289  0.47672182     0.02800
N226        N  0.59627057  0.84928626  0.54877828    -0.80900
H227        H  0.50299314  0.79464163  0.53387288     0.18300
C228        C  0.67591695  0.87741719  0.47129712    -0.25700
C229        C  0.72538746  0.90499977  0.47308815     0.36300
C230        C  0.75278512  0.88300124  0.47828330    -0.19700
C231        C  0.72932202  0.83384065  0.48256443    -0.25000
C232        C  0.67983136  0.80663953  0.48268857     0.27700
H233        H  0.65508174  0.89420825  0.46654349     0.13500
N234        N  0.74745693  0.95523330  0.47096634    -0.82200
H235        H  0.74960401  0.81645130  0.48715352     0.18300
N236        N  0.65689695  0.75687451  0.49000570    -0.80800
H237        H  0.72237978  0.96534056  0.46496286     0.33900
H238        H  0.76222675  0.96916951  0.50723831     0.38400
H239        H  0.68172548  0.74608929  0.49371188     0.33900
H240        H  0.63868030  0.74999168  0.52494918     0.30600
H241        H  0.57140629  0.85294275  0.57100965     0.33900
H242        H  0.61440166  0.83961893  0.57386137     0.30600
H243        H  0.48669917  0.66682027  0.42626517     0.38500
H244        H  0.52951752  0.69239005  0.38237323     0.34000
C245        C  0.22145522  0.72099556  0.46422828    -0.19800
C246        C  0.18188191  0.70799787  0.49613940     0.36400
C247        C  0.15777507  0.73331447  0.49514854    -0.25800
C248        C  0.17270709  0.77175730  0.46298979     0.02900
C249        C  0.21157044  0.78414515  0.43018297     0.27700
C250        C  0.23544660  0.75868626  0.43112369    -0.24900
N251        N  0.16572005  0.66882319  0.52905981    -0.82300
H252        H  0.12783109  0.72351056  0.52034744     0.13500
C253        C  0.14933835  0.80058283  0.46619162     0.02800
N254        N  0.22684536  0.82283916  0.39634961    -0.80900
H255        H  0.26588127  0.76895187  0.40663681     0.18300
C256        C  0.17467106  0.84662509  0.48639299    -0.25700
C257        C  0.15366437  0.87470199  0.49284707     0.36300
C258        C  0.10626585  0.85689273  0.47691054    -0.19700
C259        C  0.08133010  0.81075077  0.45573813    -0.25000
C260        C  0.10225934  0.78246354  0.45050540     0.27700
H261        H  0.21076441  0.86019777  0.49879386     0.13500
N262        N  0.18012059  0.92057660  0.51695208    -0.82200
H263        H  0.04506451  0.79633089  0.44359979     0.18300
N264        N  0.07589711  0.73536830  0.42945879    -0.80800
H265        H  0.21475370  0.92883855  0.52435495     0.33900
H266        H  0.16485464  0.91934921  0.55292346     0.38400
H267        H  0.04159276  0.72709597  0.42013078     0.33900
H268        H  0.09199214  0.73404793  0.39491290     0.30600
H269        H  0.25618182  0.82771501  0.37505685     0.33900
H270        H  0.19971895  0.81390180  0.36981423     0.30600
H271        H  0.16610584  0.68071753  0.56697194     0.38500
H272        H  0.13078384  0.64456552  0.51919296     0.34000
C273        C  0.25622346  0.49868149  0.97201765    -0.19800
C274        C  0.22039766  0.47397754  0.00862345     0.36400
C275        C  0.19673882  0.42469318  0.00778521    -0.25800
C276        C  0.20762341  0.39977650  0.97082482     0.02900
C277        C  0.24283764  0.42399438  0.93406833     0.27700
C278        C  0.26674910  0.47324334  0.93495278    -0.24900
N279        N  0.20730269  0.49878084  0.04558904    -0.82300
H280        H  0.16924027  0.40548464  0.03562874     0.13500
C281        C  0.18152867  0.34810050  0.97098398     0.02800
N282        N  0.25383039  0.39840399  0.89585736    -0.80900
H283        H  0.29414641  0.49196047  0.90692641     0.18300
C284        C  0.14072615  0.32333057  0.94089240    -0.25700
C285        C  0.11391720  0.27411204  0.94150827     0.36300
C286        C  0.12849986  0.24943026  0.97300624    -0.19700
C287        C  0.17021363  0.27461101  0.00212904    -0.25000
C288        C  0.19664115  0.32378299  0.00175767     0.27700
H289        H  0.12960886  0.34258959  0.91726743     0.13500
N290        N  0.07203537  0.24928303  0.91043003    -0.82200
H291        H  0.18142476  0.25602675  0.02670936     0.18300
N292        N  0.23790090  0.34926606  0.03366742    -0.80800
H293        H  0.06597358  0.27272748  0.89029092     0.33900
H294        H  0.07800641  0.22907929  0.88275488     0.38400
H295        H  0.24371577  0.32616644  0.05484608     0.33900
H296        H  0.26697559  0.36666735  0.00941243     0.30600
H297        H  0.28018776  0.42148506  0.87116033     0.33900
H298        H  0.26778638  0.38060737  0.91495081     0.30600
H299        H  0.19307297  0.51568307  0.02527128     0.38500
H300        H  0.18071592  0.47537311  0.06989024     0.34000
C301        C  0.50993622  0.76357570  0.96125309    -0.19800
C302        C  0.53544920  0.79269856  0.91992943     0.36400
C303        C  0.58501143  0.81536864  0.91985785    -0.25800
C304        C  0.60959406  0.81082564  0.96087268     0.02900
C305        C  0.58449389  0.78338034  0.00301402     0.27700
C306        C  0.53495727  0.75961932  0.00249977    -0.24900
N307        N  0.51113205  0.80023720  0.87899515    -0.82300
H308        H  0.60470061  0.83741886  0.88816548     0.13500
C309        C  0.66180045  0.83639068  0.96010621     0.02800
N310        N  0.60946739  0.78050112  0.04655168    -0.80900
H311        H  0.51573787  0.73757238  0.03431937     0.18300
C312        C  0.68646601  0.88183302  0.98173658    -0.25700
C313        C  0.73601829  0.90674956  0.98399298     0.36300
C314        C  0.76165508  0.88571790  0.96334578    -0.19700
C315        C  0.73641500  0.84038666  0.94049168    -0.25000
C316        C  0.68681277  0.81554646  0.93876043     0.27700
H317        H  0.66678340  0.89750550  0.99800149     0.13500
N318        N  0.75993901  0.95270421  0.00840547    -0.82200
H319        H  0.75538523  0.82389045  0.92447633     0.18300
N320        N  0.66169554  0.76931010  0.91525137    -0.80800
H321        H  0.73602047  0.96363877  0.01910858     0.33900
H322        H  0.77479468  0.95011781  0.04265275     0.38400
H323        H  0.68526493  0.75920540  0.90072095     0.33900
H324        H  0.64233404  0.74577786  0.94402960     0.30600
H325        H  0.58581955  0.75982103  0.07491142     0.33900
H326        H  0.62750836  0.76334694  0.03419555     0.30600
H327        H  0.49430327  0.81745562  0.89503967     0.38500
H328        H  0.53503358  0.82266185  0.85185153     0.34000
C329        C  0.24664232  0.75504554  0.96006126    -0.19800
C330        C  0.25689739  0.78829869  0.92174256     0.36400
C331        C  0.22992015  0.81031001  0.91878379    -0.25800
C332        C  0.19423687  0.80134159  0.95456568     0.02900
C333        C  0.18431109  0.76873128  0.99347507     0.27700
C334        C  0.21044852  0.74557803  0.99557091    -0.24900
N335        N  0.29571782  0.80078747  0.88712512    -0.82300
H336        H  0.23778721  0.83593393  0.88948695     0.13500
C337        C  0.17126294  0.83019154  0.95365620     0.02800
N338        N  0.14843314  0.75994995  0.03108351    -0.80900
H339        H  0.20265153  0.72003733  0.02491572     0.18300
C340        C  0.12291840  0.80919251  0.94318015    -0.25700
C341        C  0.10057584  0.83621443  0.94295812     0.36300
C342        C  0.12726883  0.88514340  0.95420574    -0.19700
C343        C  0.17600914  0.90602476  0.96258165    -0.25000
C344        C  0.19813507  0.87905669  0.96286238     0.27700
H345        H  0.10268232  0.77168888  0.93519601     0.13500
N346        N  0.05105870  0.81416254  0.93153690    -0.82200
H347        H  0.19673313  0.94333694  0.97139495     0.18300
N348        N  0.24772988  0.90089920  0.97378349    -0.80800
H349        H  0.03673977  0.77810447  0.92445742     0.33900
H350        H  0.04754322  0.82804766  0.89732578     0.38400
H351        H  0.26257461  0.93718122  0.97929676     0.33900
H352        H  0.25145153  0.88802861  0.00864096     0.30600
H353        H  0.14554040  0.73497685  0.05698719     0.33900
H354        H  0.15932044  0.79109325  0.05259940     0.30600
H355        H  0.32662609  0.81674722  0.90918917     0.38500
H356        H  0.29849903  0.82575584  0.86128992     0.34000
C357        C  0.32693718  0.65531056  0.57727651    -0.19800
C358        C  0.33346795  0.69562981  0.60568890     0.36400
C359        C  0.33043607  0.69470519  0.65967678    -0.25800
C360        C  0.32606106  0.65658723  0.68678420     0.02900
C361        C  0.32405594  0.61803290  0.65893045     0.27700
C362        C  0.32545110  0.61845523  0.60494901    -0.24900
N363        N  0.34448164  0.73797242  0.57998797    -0.82300
H364        H  0.33380531  0.72500106  0.68114114     0.13500
C365        C  0.32777898  0.66022889  0.74396920     0.02800
N366        N  0.32159859  0.57835134  0.68364255    -0.80900
H367        H  0.32803870  0.59060034  0.58515035     0.18300
C368        C  0.28743388  0.63028871  0.77211489    -0.25700
C369        C  0.28678682  0.63311199  0.82622188     0.36300
C370        C  0.32889753  0.66528900  0.85353024    -0.19700
C371        C  0.36604266  0.69945958  0.82432132    -0.25000
C372        C  0.36744913  0.69601321  0.77068903     0.27700
H373        H  0.25562711  0.60517195  0.75166300     0.13500
N374        N  0.24186659  0.60561982  0.85079698    -0.82200
H375        H  0.39431220  0.73039382  0.84262369     0.18300
N376        N  0.40981827  0.72968624  0.74515885    -0.80800
H377        H  0.23114694  0.57009165  0.84515175     0.33900
H378        H  0.24277035  0.61284213  0.89016985     0.38400
H379        H  0.43788844  0.72750813  0.76070210     0.33900
H380        H  0.40957979  0.72129924  0.70609029     0.30600
H381        H  0.35198782  0.57715648  0.67375546     0.33900
H382        H  0.32184401  0.58179044  0.72369779     0.30600
H383        H  0.37814632  0.75155493  0.56418609     0.38500
H384        H  0.34643867  0.76354570  0.60633409     0.34000
C385        C  0.33813487  0.67386163  0.07804883    -0.19800
C386        C  0.37144097  0.66664795  0.10485687     0.36400
C387        C  0.37139976  0.66719226  0.15900426    -0.25800
C388        C  0.33578602  0.66913011  0.18738020     0.02900
C389        C  0.29942052  0.67096584  0.16086317     0.27700
C390        C  0.30105302  0.67307820  0.10696035    -0.24900
N391        N  0.40396817  0.65669439  0.07744467    -0.82300
H392        H  0.39800145  0.66357645  0.17936073     0.13500
C393        C  0.33587485  0.66584031  0.24425749     0.02800
N394        N  0.25959851  0.66937065  0.18684033    -0.80900
H395        H  0.27112784  0.67111155  0.08784721     0.18300
C396        C  0.34535082  0.70532026  0.27500001    -0.25700
C397        C  0.34581445  0.70445572  0.32902064     0.36300
C398        C  0.33453513  0.66179061  0.35353920    -0.19700
C399        C  0.33087813  0.62458239  0.32192663    -0.25000
C400        C  0.32895581  0.62493850  0.26819480     0.27700
H401        H  0.35282966  0.73746536  0.25669235     0.13500
N402        N  0.35863590  0.74784214  0.35668507    -0.82200
H403        H  0.33027306  0.59471125  0.33839271     0.18300
N404        N  0.31938584  0.58285089  0.23968831    -0.80800
H405        H  0.39248969  0.77274795  0.34480066     0.33900
H406        H  0.36150943  0.74561588  0.39615830     0.38400
H407        H  0.28660726  0.55588331  0.25180868     0.33900
H408        H  0.31570481  0.58548921  0.20033278     0.30600
H409        H  0.22938878  0.63876725  0.17408179     0.33900
H410        H  0.26107095  0.66669691  0.22660261     0.30600
H411        H  0.38455803  0.62407523  0.05854574     0.38500
H412        H  0.42660008  0.65353825  0.10291353     0.34000
C413        C  0.88769762  0.13171240  0.52949949    -0.19800
C414        C  0.89610952  0.16531513  0.56926437     0.36400
C415        C  0.87210118  0.19082294  0.56874376    -0.25800
C416        C  0.84058044  0.18397432  0.52882396     0.02900
C417        C  0.83268805  0.15095591  0.48879119     0.27700
C418        C  0.85595607  0.12491539  0.48977492    -0.24900
N419        N  0.92848942  0.17300580  0.61020710    -0.82300
H420        H  0.87791756  0.21615890  0.59953756     0.13500
C421        C  0.81435280  0.20997782  0.53020061     0.02800
N422        N  0.80093894  0.14396368  0.44735884    -0.80900
H423        H  0.84994223  0.09972032  0.45875176     0.18300
C424        C  0.82253230  0.24260005  0.49217542    -0.25700
C425        C  0.79648029  0.26597832  0.49100379     0.36300
C426        C  0.76093597  0.25580144  0.52814571    -0.19700
C427        C  0.75347125  0.22368177  0.56655533    -0.25000
C428        C  0.77957765  0.20053209  0.56781434     0.27700
H429        H  0.84944677  0.24986747  0.46344765     0.13500
N430        N  0.80654662  0.30048461  0.45291548    -0.82200
H431        H  0.72625619  0.21578323  0.59503725     0.18300
N432        N  0.77024954  0.16667170  0.60648808    -0.80800
H433        H  0.83352527  0.30369498  0.42843651     0.33900
H434        H  0.81916639  0.33293254  0.47223981     0.38400
H435        H  0.74374078  0.16392264  0.63145445     0.33900
H436        H  0.75715251  0.13391580  0.58774832     0.30600
H437        H  0.79937122  0.11881790  0.42062869     0.33900
H438        H  0.76715185  0.13033767  0.46295575     0.30600
H439        H  0.91460359  0.14200811  0.63060878     0.38500
H440        H  0.93083005  0.19900355  0.63622684     0.34000
C441        C  0.73248176  0.50543535  0.53368192    -0.19800
C442        C  0.72259988  0.53034681  0.57261941     0.36400
C443        C  0.74743520  0.57966208  0.57337304    -0.25800
C444        C  0.78058346  0.60433206  0.53518957     0.02900
C445        C  0.78839639  0.57967401  0.49469117     0.27700
C446        C  0.76485779  0.53054240  0.49478990    -0.24900
N447        N  0.68708379  0.50569042  0.61069456    -0.82300
H448        H  0.74108629  0.59903601  0.60387309     0.13500
C449        C  0.80764162  0.65611980  0.53826565     0.02800
N450        N  0.82031208  0.60477126  0.45373265    -0.80900
H451        H  0.77251968  0.51176044  0.46482396     0.18300
C452        C  0.85646204  0.67879177  0.54619307    -0.25700
C453        C  0.88398126  0.72795989  0.54731047     0.36300
C454        C  0.86201751  0.75491635  0.54000025    -0.19700
C455        C  0.81277733  0.73189028  0.53337130    -0.25000
C456        C  0.78541190  0.68271784  0.53212177     0.27700
H457        H  0.87310931  0.65788589  0.55125952     0.13500
N458        N  0.93401627  0.75044450  0.55562947    -0.82200
H459        H  0.79571272  0.75222118  0.52706515     0.18300
N460        N  0.73538858  0.65963411  0.52337583    -0.80800
H461        H  0.94448071  0.72551931  0.55969291     0.33900
H462        H  0.94150917  0.76938892  0.59067632     0.38400
H463        H  0.72452728  0.68427848  0.51944062     0.33900
H464        H  0.72828929  0.64096280  0.48818053     0.30600
H465        H  0.82210862  0.58140203  0.42685770     0.33900
H466        H  0.80622701  0.62228691  0.43427748     0.30600
H467        H  0.65473070  0.48686244  0.59151213     0.38500
H468        H  0.68427604  0.52925725  0.63638657     0.34000
C469        C  0.24150982  0.10508615  0.54257571    -0.19800
C470        C  0.26999665  0.08734492  0.52252497     0.36400
C471        C  0.31927332  0.11488769  0.52672526    -0.25800
C472        C  0.34076104  0.15964597  0.55059577     0.02900
C473        C  0.31234712  0.17682000  0.57198986     0.27700
C474        C  0.26299826  0.14960241  0.56715947    -0.24900
N475        N  0.24896207  0.04221173  0.49630676    -0.82300
H476        H  0.34119014  0.10197449  0.50992791     0.13500
C477        C  0.39307060  0.18876230  0.55060760     0.02800
N478        N  0.33376777  0.22177238  0.59851958    -0.80900
H479        H  0.24115900  0.16308249  0.58277123     0.18300
C480        C  0.41472157  0.23180321  0.52556842    -0.25700
C481        C  0.46408787  0.25885311  0.52165961     0.36300
C482        C  0.49224394  0.24283452  0.54377574    -0.19700
C483        C  0.47076989  0.20032941  0.56963710    -0.25000
C484        C  0.42137918  0.17277835  0.57275053     0.27700
H485        H  0.39295019  0.24378757  0.50809410     0.13500
N486        N  0.48590546  0.30248552  0.49529626    -0.82200
H487        H  0.49276463  0.18833372  0.58649126     0.18300
N488        N  0.39980212  0.12848200  0.59784115    -0.80800
H489        H  0.46032778  0.30926709  0.48095634     0.33900
H490        H  0.50564495  0.32928265  0.52238747     0.38400
H491        H  0.42548067  0.12157157  0.61151378     0.33900
H492        H  0.38173549  0.13117719  0.63005693     0.30600
H493        H  0.30798967  0.22923166  0.61204744     0.33900
H494        H  0.35099581  0.21958986  0.63101722     0.30600
H495        H  0.23291748  0.04434980  0.46276662     0.38500
H496        H  0.27478575  0.03419459  0.48448848     0.34000
C497        C  0.75570547  0.25012625  0.03916173    -0.19800
C498        C  0.79802613  0.26868057  0.06760506     0.36400
C499        C  0.82250751  0.24384828  0.06834219    -0.25800
C500        C  0.80572528  0.20112909  0.04083687     0.02900
C501        C  0.76366327  0.18268510  0.01203088     0.27700
C502        C  0.73910297  0.20750125  0.01134046    -0.24900
N503        N  0.81655963  0.31328430  0.09445050    -0.82300
H504        H  0.85512002  0.25805161  0.08993036     0.13500
C505        C  0.83358047  0.17696831  0.04076646     0.02800
N506        N  0.74636748  0.13905693  0.98337898    -0.80900
H507        H  0.70680546  0.19359513  0.98925594     0.18300
C508        C  0.81583991  0.13422780  0.06558900    -0.25700
C509        C  0.84011827  0.10908057  0.06384834     0.36300
C510        C  0.88309909  0.12710704  0.03635792    -0.19700
C511        C  0.90162229  0.17105427  0.01339911    -0.25000
C512        C  0.87699940  0.19580864  0.01477125     0.27700
H513        H  0.78261250  0.12024444  0.08591924     0.13500
N514        N  0.82097265  0.06517739  0.08946471    -0.82200
H515        H  0.93437072  0.18521286  0.99212748     0.18300
N516        N  0.89508593  0.23927721  0.98846049    -0.80800
H517        H  0.78889333  0.05663970  0.10707617     0.33900
H518        H  0.84433378  0.06961022  0.11901281     0.38400
H519        H  0.92738684  0.24837068  0.97106732     0.33900
H520        H  0.87158535  0.23385521  0.95865000     0.30600
H521        H  0.71493127  0.13023592  0.96444143     0.33900
H522        H  0.77104808  0.14404847  0.95472542     0.30600
H523        H  0.82495965  0.33875640  0.06687266     0.38500
H524        H  0.84798889  0.32205605  0.11337252     0.34000
C525        C  0.75133778  0.51322316  0.01805099    -0.19800
C526        C  0.73024394  0.53940924  0.03549476     0.36400
C527        C  0.75515598  0.58838432  0.03217972    -0.25800
C528        C  0.80107223  0.61197730  0.01209312     0.02900
C529        C  0.82149706  0.58566108  0.99283991     0.27700
C530        C  0.79630937  0.53653829  0.99595807    -0.24900
N531        N  0.68346824  0.51713765  0.05604302    -0.82300
H532        H  0.73909596  0.60825384  0.04677040     0.13500
C533        C  0.82842775  0.66416721  0.01386633     0.02800
N534        N  0.86787271  0.60901053  0.97063441    -0.80900
H535        H  0.81206886  0.51618877  0.98208994     0.18300
C536        C  0.87206807  0.68709451  0.03945189    -0.25700
C537        C  0.90046472  0.73627286  0.04035397     0.36300
C538        C  0.88417709  0.76343935  0.01605794    -0.19700
C539        C  0.83943727  0.74022891  0.99231760    -0.25000
C540        C  0.81166344  0.69105351  0.99054897     0.27700
H541        H  0.88436321  0.66629415  0.05826410     0.13500
N542        N  0.94536772  0.75827221  0.06617512    -0.82200
H543        H  0.82651194  0.76043004  0.97338857     0.18300
N544        N  0.76695278  0.66836321  0.96430596    -0.80800
H545        H  0.94950138  0.73353940  0.08628625     0.33900
H546        H  0.97142920  0.77049154  0.03779712     0.38400
H547        H  0.75958865  0.69320330  0.94961946     0.33900
H548        H  0.76959818  0.64942879  0.93263346     0.30600
H549        H  0.87795335  0.58465728  0.95888195     0.33900
H550        H  0.86627965  0.62527664  0.93741654     0.30600
H551        H  0.66072186  0.49216266  0.02900187     0.38500
H552        H  0.68274477  0.49993287  0.08951920     0.34000
C553        C  0.50152764  0.25773108  0.03544986    -0.19800
C554        C  0.47585778  0.21686684  0.06398596     0.36400
C555        C  0.42642041  0.19305381  0.06238073    -0.25800
C556        C  0.40255038  0.20935029  0.03249079     0.02900
C557        C  0.42833725  0.25035569  0.00397300     0.27700
C558        C  0.47775073  0.27412886  0.00570423    -0.24900
N559        N  0.50020465  0.19936844  0.09350260    -0.82300
H560        H  0.40632788  0.16153249  0.08421151     0.13500
C561        C  0.35047392  0.18281029  0.03131586     0.02800
N562        N  0.40424539  0.26729725  0.97308681    -0.80900
H563        H  0.49803150  0.30554760  0.98378870     0.18300
C564        C  0.32561435  0.20390862  0.05146704    -0.25700
C565        C  0.27611308  0.17970614  0.05165248     0.36300
C566        C  0.25083888  0.13299699  0.03110837    -0.19700
C567        C  0.27629652  0.11195943  0.01155265    -0.25000
C568        C  0.32576824  0.13661289  0.01080554     0.27700
H569        H  0.34506532  0.23947314  0.06728455     0.13500
N570        N  0.25177861  0.20277361  0.07213118    -0.82200
H571        H  0.25763840  0.07666135  0.99498915     0.18300
N572        N  0.35111659  0.11540179  0.98819158    -0.80800
H573        H  0.27563603  0.23746153  0.08356298     0.33900
H574        H  0.23424340  0.18545779  0.10544216     0.38400
H575        H  0.32776350  0.08123494  0.97471308     0.33900
H576        H  0.36892824  0.13465382  0.95592789     0.30600
H577        H  0.42845107  0.29808284  0.95491423     0.33900
H578        H  0.38628095  0.24212798  0.94384585     0.30600
H579        H  0.51895626  0.18989032  0.06768201     0.38500
H580        H  0.47614993  0.16881167  0.11213197     0.34000
C581        C  0.67550031  0.33747782  0.91980733    -0.19800
C582        C  0.71630368  0.34509987  0.89212324     0.36400
C583        C  0.71511472  0.34219636  0.83800240    -0.25800
C584        C  0.67627265  0.33710962  0.81056948     0.02900
C585        C  0.63787692  0.33531379  0.83778962     0.27700
C586        C  0.63852447  0.33639059  0.89164965    -0.24900
N587        N  0.75950266  0.35781785  0.91858595    -0.82300
H588        H  0.74549804  0.34596002  0.81686370     0.13500
C589        C  0.67774451  0.33635049  0.75364506     0.02800
N590        N  0.59812346  0.33342617  0.81247828    -0.80900
H591        H  0.61080809  0.33922128  0.91109436     0.18300
C592        C  0.64817200  0.29410980  0.72699441    -0.25700
C593        C  0.64602421  0.29146773  0.67305406     0.36300
C594        C  0.67206995  0.33331581  0.64464341    -0.19700
C595        C  0.70662792  0.37337901  0.67177516    -0.25000
C596        C  0.70855612  0.37631786  0.72555891     0.27700
H597        H  0.62691526  0.26257264  0.74846818     0.13500
N598        N  0.61975813  0.24531430  0.64947533    -0.82200
H599        H  0.73377472  0.40269245  0.65150539     0.18300
N600        N  0.74210792  0.42043619  0.74974957    -0.80800
H601        H  0.58404155  0.23173810  0.65780073     0.33900
H602        H  0.62378133  0.24500770  0.60969897     0.38400
H603        H  0.73375616  0.44561509  0.73852022     0.33900
H604        H  0.73952162  0.41977741  0.78978440     0.30600
H605        H  0.59723499  0.36375485  0.82354348     0.33900
H606        H  0.60148520  0.33405555  0.77247464     0.30600
H607        H  0.77146993  0.39073794  0.93645556     0.38500
H608        H  0.78571238  0.36164125  0.89253690     0.34000
C609        C  0.67519022  0.34409381  0.14445052    -0.19800
C610        C  0.64662355  0.30215017  0.17224371     0.36400
C611        C  0.64502104  0.30442381  0.22619949    -0.25800
C612        C  0.67257499  0.34630555  0.25431556     0.02900
C613        C  0.70436497  0.38691833  0.22749933     0.27700
C614        C  0.70613264  0.38466345  0.17353724    -0.24900
N615        N  0.62060175  0.25601463  0.14842865    -0.82300
H616        H  0.62264366  0.27254175  0.24667511     0.13500
C617        C  0.66988258  0.34506047  0.31158188     0.02800
N618        N  0.73555266  0.43103930  0.25328927    -0.80900
H619        H  0.73361445  0.41486490  0.15497925     0.18300
C620        C  0.70938713  0.35224314  0.33928713    -0.25700
C621        C  0.70904463  0.35128671  0.39338166     0.36300
C622        C  0.66622090  0.33689227  0.42071341    -0.19700
C623        C  0.62785722  0.33314547  0.39279140    -0.25000
C624        C  0.62899536  0.33696742  0.33897616     0.27700
H625        H  0.74136661  0.36038317  0.31849580     0.13500
N626        N  0.75261483  0.36662162  0.42037220    -0.82200
H627        H  0.59750189  0.33013926  0.41264709     0.18300
N628        N  0.58841142  0.33348821  0.31394365    -0.80800
H629        H  0.78023774  0.37470817  0.39456930     0.33900
H630        H  0.76115163  0.39783078  0.44054129     0.38400
H631        H  0.58402425  0.36100894  0.32852214     0.33900
H632        H  0.59347792  0.33839972  0.27438984     0.30600
H633        H  0.72771695  0.45593377  0.23978521     0.33900
H634        H  0.72953671  0.42993570  0.29285747     0.30600
H635        H  0.62560814  0.25535617  0.10878347     0.38500
H636        H  0.58479723  0.24311935  0.15495356     0.34000
loop_ 
_geom_bond_atom_site_label_1 
_geom_bond_atom_site_label_2 
_geom_bond_distance 
_geom_bond_site_symmetry_2 
_ccdc_geom_bond_type 
C1            C3   1.537       .  S
C1            C5   1.556       .  S
C1            C4   1.538       .  S
C1          C609   1.543       .  S
C2            C6   1.537   1_556  S
C2            C8   1.533   1_556  S
C2            C7   1.547   1_556  S
C2          C581   1.536       .  S
C3           C11   1.376       .  A
C3            C6   1.390       .  A
C4           C15   1.377       .  A
C4            C7   1.397       .  A
C5           C19   1.389       .  A
C5            C8   1.400       .  A
C6            C9   1.381   1_554  A
C7           C13   1.380   1_554  A
C8           C16   1.375   1_554  A
C9           N10   1.358   1_556  A
C9           H22   1.082       .  S
N10          C11   1.357       .  A
N10         C497   1.439       .  S
C11          H12   1.082       .  S
C13          N14   1.353   1_556  A
C13          H23   1.081       .  S
N14          C15   1.353       .  A
N14         C553   1.430       .  S
C15          H21   1.082       .  S
C16          N17   1.353   1_556  A
C16          H18   1.083       .  S
N17          C19   1.358       .  A
N17         C525   1.437       .  S
C19          H20   1.079       .  S
C24          C26   1.547       .  S
C24          C28   1.558       .  S
C24          C27   1.534       .  S
C24         C622   1.543       .  S
C25          C29   1.526       .  S
C25          C31   1.542       .  S
C25          C30   1.544       .  S
C25         C594   1.537       .  S
C26          C34   1.385       .  A
C26          C29   1.387       .  A
C27          C38   1.374       .  A
C27          C30   1.392       .  A
C28          C42   1.387       .  A
C28          C31   1.403       .  A
C29          C32   1.372       .  A
C30          C36   1.382       .  A
C31          C39   1.377       .  A
C32          N33   1.356       .  A
C32          H45   1.082       .  S
N33          C34   1.362       .  A
N33         C426   1.444       .  S
C34          H35   1.082       .  S
C36          N37   1.357       .  A
C36          H46   1.078       .  S
N37          C38   1.358       .  A
N37         C441   1.442       .  S
C38          H44   1.082       .  S
C39          N40   1.354       .  A
C39          H41   1.082       .  S
N40          C42   1.358       .  A
N40         C482   1.437       .  S
C42          H43   1.080       .  S
C47          C49   1.548   1_554  S
C47          C51   1.539   1_554  S
C47          C50   1.544   1_554  S
C47         C385   1.540       .  S
C48          C52   1.530       .  S
C48          C54   1.533       .  S
C48          C53   1.555       .  S
C48         C370   1.541       .  S
C49          C57   1.386   1_556  A
C49          C52   1.394       .  A
C50          C61   1.380   1_556  A
C50          C53   1.397       .  A
C51          C65   1.377   1_556  A
C51          C54   1.391       .  A
C52          C55   1.369       .  A
C53          C59   1.384       .  A
C54          C62   1.375       .  A
C55          N56   1.354       .  A
C55          H68   1.082       .  S
N56          C57   1.360   1_556  A
N56         C329   1.439       .  S
C57          H58   1.081       .  S
C59          N60   1.357       .  A
C59          H69   1.081       .  S
N60          C61   1.358   1_556  A
N60         C301   1.446       .  S
C61          H67   1.082       .  S
C62          N63   1.359       .  A
C62          H64   1.081       .  S
N63          C65   1.360   1_556  A
N63         C273   1.443       .  S
C65          H66   1.082       .  S
C70          C72   1.537       .  S
C70          C74   1.531       .  S
C70          C73   1.553       .  S
C70         C398   1.539       .  S
C71          C75   1.550       .  S
C71          C77   1.534       .  S
C71          C76   1.551       .  S
C71         C357   1.537       .  S
C72          C80   1.376       .  A
C72          C75   1.392       .  A
C73          C84   1.386       .  A
C73          C76   1.406       .  A
C74          C88   1.377       .  A
C74          C77   1.384       .  A
C75          C78   1.386       .  A
C76          C82   1.383       .  A
C77          C85   1.380       .  A
C78          N79   1.362       .  A
C78          H91   1.082       .  S
N79          C80   1.358       .  A
N79         C245   1.446       .  S
C80          H81   1.082       .  S
C82          N83   1.355       .  A
C82          H92   1.079       .  S
N83          C84   1.355       .  A
N83         C202   1.448       .  S
C84          H90   1.080       .  S
C85          N86   1.360       .  A
C85          H87   1.082       .  S
N86          C88   1.359       .  A
N86         C217   1.442       .  S
C88          H89   1.082       .  S
O93         Mg95   2.143       .  S
O93        Mg101   2.148   1_564  S
O93         C128   1.235   1_565  S
C94         H133   1.081       .  S
C94         O107   1.235       .  S
C94         O131   1.269       .  A
Mg95        O124   2.159   1_454  S
Mg95        O139   2.294   1_554  S
Mg95        O135   2.262   1_455  S
Mg95        O106   2.294   1_455  S
O96        Mg138   2.162   1_454  S
O96        Mg121   2.138       .  S
O96         C117   1.236       .  S
O97         C128   1.269       .  A
O97        Mg121   2.297       .  S
C98         O100   1.274       .  A
C98         O112   1.274       .  A
C98         C314   1.495       .  S
O99         C127   1.271       .  A
O99        Mg101   2.300   1_565  S
O100       Mg132   2.280       .  S
Mg101       O107   2.143       .  S
Mg101       O115   2.273   1_545  S
Mg101       O103   2.321   1_556  S
C102        O140   1.271       .  A
C102        O108   1.276       .  A
C102        C510   1.491       .  S
O103        C110   1.278       .  A
H104        C117   1.081       .  S
C105        H130   1.081       .  S
C105        O119   1.235       .  S
C105        O120   1.269   1_545  A
O106        C129   1.270       .  A
O107       Mg121   2.152   1_556  S
O108       Mg138   2.309   1_554  S
C109        O122   1.270       .  A
C109        O114   1.274       .  A
C109        C286   1.481       .  S
C110        O137   1.269       .  A
C110        C566   1.490       .  S
Mg111       O118   2.141       .  S
Mg111       O119   2.151   1_564  S
Mg111       O112   2.299   1_554  S
Mg111       O113   2.293   1_565  S
Mg111       O140   2.261   1_565  S
O113        C117   1.269   1_655  A
O114       Mg121   2.290   1_556  S
O115        C134   1.275       .  A
O116        C136   1.275   1_556  A
O116       Mg132   2.295       .  S
O118       Mg132   2.149   1_554  S
O118        C129   1.236       .  S
O119       Mg138   2.135       .  S
O120       Mg132   2.297       .  S
Mg121       O137   2.238       .  S
O122       Mg138   2.251   1_455  S
H123        C128   1.081   1_565  S
O124       Mg132   2.151       .  S
O124        C127   1.236   1_655  S
H125        C127   1.081   1_655  S
H126        C129   1.081       .  S
O131       Mg138   2.299   1_455  S
C134        O139   1.273       .  A
C134        C342   1.486       .  S
O135        C136   1.271       .  A
C136        C538   1.490       .  S
O141       Mg143   2.138       .  S
O141       Mg149   2.163   1_655  S
O141        C176   1.237       .  S
C142        H181   1.081       .  S
C142        O155   1.237       .  S
C142        O179   1.272       .  A
Mg143       O172   2.162   1_545  S
Mg143       O187   2.311       .  S
Mg143       O183   2.265   1_545  S
Mg143       O154   2.295   1_545  S
O144       Mg186   2.147   1_545  S
O144       Mg169   2.151       .  S
O144        C165   1.234   1_545  S
O145        C176   1.271   1_455  A
O145       Mg169   2.302       .  S
C146        O148   1.270       .  A
C146        O160   1.273       .  A
C146        C454   1.482       .  S
O147        C175   1.267       .  A
O147       Mg149   2.286   1_655  S
O148       Mg180   2.249       .  S
Mg149       O155   2.170       .  S
Mg149       O163   2.286   1_455  S
Mg149       O151   2.270       .  S
C150        O188   1.274       .  A
C150        O156   1.278       .  A
C150        C258   1.502       .  S
O151        C158   1.271       .  A
H152        C165   1.081   1_545  S
C153        H178   1.081   1_655  S
C153        O167   1.237   1_655  S
C153        O168   1.270       .  A
O154        C177   1.268       .  A
O155       Mg169   2.155       .  S
O156       Mg186   2.332       .  S
C157        O170   1.272       .  A
C157        O162   1.278       .  A
C157        C469   1.481       .  S
C158        O185   1.273       .  A
C158        C189   1.480       .  S
Mg159       O166   2.154       .  S
Mg159       O167   2.160   1_655  S
Mg159       O160   2.289       .  S
Mg159       O161   2.299   1_655  S
Mg159       O188   2.278   1_655  S
O161        C165   1.269       .  A
O162       Mg169   2.323       .  S
O163        C182   1.273       .  A
O164        C184   1.276       .  A
O164       Mg180   2.302       .  S
O166       Mg180   2.162       .  S
O166        C177   1.234       .  S
O167       Mg186   2.137       .  S
O168       Mg180   2.297       .  S
Mg169       O185   2.279       .  S
O170       Mg186   2.258   1_545  S
H171        C176   1.081       .  S
O172       Mg180   2.138       .  S
O172        C175   1.234   1_565  S
H173        C175   1.081   1_565  S
H174        C177   1.081       .  S
O179       Mg186   2.313   1_545  S
C182        O187   1.276       .  A
C182        C413   1.487       .  S
O183        C184   1.273       .  A
C184        C230   1.494       .  S
C189        C190   1.413       .  A
C189        C194   1.408       .  A
C190        C191   1.404       .  A
C190        N195   1.438       .  S
C191        C192   1.401       .  A
C191        H196   1.084       .  S
C192        C193   1.407       .  A
C192        C197   1.475       .  S
C193        C194   1.404       .  A
C193        N198   1.439       .  S
C194        H199   1.084       .  S
N195        H215   1.046       .  S
N195        H216   1.046       .  S
C197        C200   1.398       .  A
C197        C204   1.408       .  A
N198        H213   1.046       .  S
N198        H214   1.043       .  S
C200        C201   1.405       .  A
C200        H205   1.084       .  S
C201        C202   1.419       .  A
C201        N206   1.437       .  S
C202        C203   1.408       .  A
C203        C204   1.405       .  A
C203        H207   1.081       .  S
C204        N208   1.439       .  S
N206        H209   1.046       .  S
N206        H210   1.045       .  S
N208        H211   1.046       .  S
N208        H212   1.043       .  S
C217        C218   1.413       .  A
C217        C222   1.403       .  A
C218        C219   1.406       .  A
C218        N223   1.437       .  S
C219        C220   1.404       .  A
C219        H224   1.084       .  S
C220        C221   1.413       .  A
C220        C225   1.491       .  S
C221        C222   1.407       .  A
C221        N226   1.438       .  S
C222        H227   1.083       .  S
N223        H243   1.046       .  S
N223        H244   1.046       .  S
C225        C228   1.402       .  A
C225        C232   1.411       .  A
N226        H241   1.046       .  S
N226        H242   1.045       .  S
C228        C229   1.407       .  A
C228        H233   1.084       .  S
C229        C230   1.419       .  A
C229        N234   1.438       .  S
C230        C231   1.409       .  A
C231        C232   1.406       .  A
C231        H235   1.083       .  S
C232        N236   1.438       .  S
N234        H237   1.045       .  S
N234        H238   1.046       .  S
N236        H239   1.046       .  S
N236        H240   1.046       .  S
C245        C246   1.411       .  A
C245        C250   1.406       .  A
C246        C247   1.409       .  A
C246        N251   1.431       .  S
C247        C248   1.405       .  A
C247        H252   1.084       .  S
C248        C249   1.410       .  A
C248        C253   1.490       .  S
C249        C250   1.406       .  A
C249        N254   1.437       .  S
C250        H255   1.083       .  S
N251        H271   1.046       .  S
N251        H272   1.046       .  S
C253        C256   1.401       .  A
C253        C260   1.408       .  A
N254        H269   1.046       .  S
N254        H270   1.046       .  S
C256        C257   1.409       .  A
C256        H261   1.084       .  S
C257        C258   1.421       .  A
C257        N262   1.438       .  S
C258        C259   1.412       .  A
C259        C260   1.410       .  A
C259        H263   1.083       .  S
C260        N264   1.438       .  S
N262        H265   1.046       .  S
N262        H266   1.046       .  S
N264        H267   1.046       .  S
N264        H268   1.045       .  S
C273        C274   1.416   1_556  A
C273        C278   1.406       .  A
C274        C275   1.405       .  A
C274        N279   1.437       .  S
C275        C276   1.399   1_554  A
C275        H280   1.084       .  S
C276        C277   1.405       .  A
C276        C281   1.473       .  S
C277        C278   1.403       .  A
C277        N282   1.438       .  S
C278        H283   1.083       .  S
N279        H299   1.045       .  S
N279        H300   1.046       .  S
C281        C284   1.400       .  A
C281        C288   1.405   1_556  A
N282        H297   1.045       .  S
N282        H298   1.045       .  S
C284        C285   1.405       .  A
C284        H289   1.084       .  S
C285        C286   1.415       .  A
C285        N290   1.438       .  S
C286        C287   1.407   1_556  A
C287        C288   1.403       .  A
C287        H291   1.084       .  S
C288        N292   1.438       .  S
N290        H293   1.045       .  S
N290        H294   1.046       .  S
N292        H295   1.045       .  S
N292        H296   1.045       .  S
C301        C302   1.417       .  A
C301        C306   1.406   1_556  A
C302        C303   1.408       .  A
C302        N307   1.437       .  S
C303        C304   1.400       .  A
C303        H308   1.084       .  S
C304        C305   1.408   1_556  A
C304        C309   1.481       .  S
C305        C306   1.406       .  A
C305        N310   1.438       .  S
C306        H311   1.083       .  S
N307        H327   1.045       .  S
N307        H328   1.046       .  S
C309        C312   1.398       .  A
C309        C316   1.407       .  A
N310        H325   1.046       .  S
N310        H326   1.045       .  S
C312        C313   1.407       .  A
C312        H317   1.084       .  S
C313        C314   1.422       .  A
C313        N318   1.439   1_556  S
C314        C315   1.409       .  A
C315        C316   1.408       .  A
C315        H319   1.083       .  S
C316        N320   1.438       .  S
N318        H321   1.046       .  S
N318        H322   1.046       .  S
N320        H323   1.045       .  S
N320        H324   1.045       .  S
C329        C330   1.412       .  A
C329        C334   1.405       .  A
C330        C331   1.401       .  A
C330        N335   1.437       .  S
C331        C332   1.400       .  A
C331        H336   1.084       .  S
C332        C333   1.411       .  A
C332        C337   1.481       .  S
C333        C334   1.407       .  A
C333        N338   1.438   1_556  S
C334        H339   1.083   1_556  S
N335        H355   1.046       .  S
N335        H356   1.045       .  S
C337        C340   1.402       .  A
C337        C344   1.408       .  A
N338        H353   1.046       .  S
N338        H354   1.046       .  S
C340        C341   1.409       .  A
C340        H345   1.084       .  S
C341        C342   1.418       .  A
C341        N346   1.438       .  S
C342        C343   1.404       .  A
C343        C344   1.401       .  A
C343        H347   1.083       .  S
C344        N348   1.438       .  S
N346        H349   1.046       .  S
N346        H350   1.045       .  S
N348        H351   1.046       .  S
N348        H352   1.045   1_556  S
C357        C358   1.418       .  A
C357        C362   1.410       .  A
C358        C359   1.404       .  A
C358        N363   1.438       .  S
C359        C360   1.402       .  A
C359        H364   1.084       .  S
C360        C361   1.414       .  A
C360        C365   1.485       .  S
C361        C362   1.402       .  A
C361        N366   1.440       .  S
C362        H367   1.077       .  S
N363        H383   1.045       .  S
N363        H384   1.045       .  S
C365        C368   1.403       .  A
C365        C372   1.413       .  A
N366        H381   1.045       .  S
N366        H382   1.042       .  S
C368        C369   1.405       .  A
C368        H373   1.084       .  S
C369        C370   1.429       .  A
C369        N374   1.439       .  S
C370        C371   1.407       .  A
C371        C372   1.395       .  A
C371        H375   1.076       .  S
C372        N376   1.441       .  S
N374        H377   1.045       .  S
N374        H378   1.040       .  S
N376        H379   1.046       .  S
N376        H380   1.042       .  S
C385        C386   1.423       .  A
C385        C390   1.410       .  A
C386        C387   1.405       .  A
C386        N391   1.438       .  S
C387        C388   1.400       .  A
C387        H392   1.084       .  S
C388        C389   1.413       .  A
C388        C393   1.484       .  S
C389        C390   1.402       .  A
C389        N394   1.440       .  S
C390        H395   1.077       .  S
N391        H411   1.044       .  S
N391        H412   1.046       .  S
C393        C396   1.400       .  A
C393        C400   1.413       .  A
N394        H409   1.046       .  S
N394        H410   1.043       .  S
C396        C397   1.404       .  A
C396        H401   1.084       .  S
C397        C398   1.431       .  A
C397        N402   1.441       .  S
C398        C399   1.408       .  A
C399        C400   1.398       .  A
C399        H403   1.076       .  S
C400        N404   1.440       .  S
N402        H405   1.046       .  S
N402        H406   1.039       .  S
N404        H407   1.046       .  S
N404        H408   1.042       .  S
C413        C414   1.413       .  A
C413        C418   1.406       .  A
C414        C415   1.411       .  A
C414        N419   1.437       .  S
C415        C416   1.405       .  A
C415        H420   1.084       .  S
C416        C417   1.408       .  A
C416        C421   1.487       .  S
C417        C418   1.406       .  A
C417        N422   1.438       .  S
C418        H423   1.084       .  S
N419        H439   1.045       .  S
N419        H440   1.046       .  S
C421        C424   1.404       .  A
C421        C428   1.409       .  A
N422        H437   1.045       .  S
N422        H438   1.046       .  S
C424        C425   1.409       .  A
C424        H429   1.084       .  S
C425        C426   1.414       .  A
C425        N430   1.437       .  S
C426        C427   1.405       .  A
C427        C428   1.405       .  A
C427        H431   1.083       .  S
C428        N432   1.437       .  S
N430        H433   1.046       .  S
N430        H434   1.046       .  S
N432        H435   1.046       .  S
N432        H436   1.046       .  S
C441        C442   1.416       .  A
C441        C446   1.405       .  A
C442        C443   1.405       .  A
C442        N447   1.437       .  S
C443        C444   1.400       .  A
C443        H448   1.084       .  S
C444        C445   1.407       .  A
C444        C449   1.476       .  S
C445        C446   1.401       .  A
C445        N450   1.438       .  S
C446        H451   1.082       .  S
N447        H467   1.045       .  S
N447        H468   1.046       .  S
C449        C452   1.401       .  A
C449        C456   1.406       .  A
N450        H465   1.046       .  S
N450        H466   1.046       .  S
C452        C453   1.404       .  A
C452        H457   1.084       .  S
C453        C454   1.414       .  A
C453        N458   1.438       .  S
C454        C455   1.408       .  A
C455        C456   1.403       .  A
C455        H459   1.084       .  S
C456        N460   1.438       .  S
N458        H461   1.045       .  S
N458        H462   1.046       .  S
N460        H463   1.045       .  S
N460        H464   1.046       .  S
C469        C470   1.415       .  A
C469        C474   1.404       .  A
C470        C471   1.405       .  A
C470        N475   1.439       .  S
C471        C472   1.402       .  A
C471        H476   1.084       .  S
C472        C473   1.411       .  A
C472        C477   1.487       .  S
C473        C474   1.408       .  A
C473        N478   1.437       .  S
C474        H479   1.084       .  S
N475        H495   1.046       .  S
N475        H496   1.046       .  S
C477        C480   1.405       .  A
C477        C484   1.412       .  A
N478        H493   1.046       .  S
N478        H494   1.046       .  S
C480        C481   1.407       .  A
C480        H485   1.084       .  S
C481        C482   1.408       .  A
C481        N486   1.437       .  S
C482        C483   1.402       .  A
C483        C484   1.407       .  A
C483        H487   1.083       .  S
C484        N488   1.438       .  S
N486        H489   1.046       .  S
N486        H490   1.045       .  S
N488        H491   1.045       .  S
N488        H492   1.046       .  S
C497        C498   1.412       .  A
C497        C502   1.403       .  A
C498        C499   1.405       .  A
C498        N503   1.437       .  S
C499        C500   1.401       .  A
C499        H504   1.084       .  S
C500        C501   1.410       .  A
C500        C505   1.482       .  S
C501        C502   1.407       .  A
C501        N506   1.438   1_554  S
C502        H507   1.083   1_554  S
N503        H523   1.046       .  S
N503        H524   1.045       .  S
C505        C508   1.401       .  A
C505        C512   1.408       .  A
N506        H521   1.045       .  S
N506        H522   1.046       .  S
C508        C509   1.407       .  A
C508        H513   1.084       .  S
C509        C510   1.417       .  A
C509        N514   1.438       .  S
C510        C511   1.408       .  A
C511        C512   1.406       .  A
C511        H515   1.083   1_554  S
C512        N516   1.438   1_554  S
N514        H517   1.046       .  S
N514        H518   1.046       .  S
N516        H519   1.045       .  S
N516        H520   1.046       .  S
C525        C526   1.412       .  A
C525        C530   1.401   1_554  A
C526        C527   1.401       .  A
C526        N531   1.432       .  S
C527        C528   1.405       .  A
C527        H532   1.084       .  S
C528        C529   1.413   1_554  A
C528        C533   1.487       .  S
C529        C530   1.405       .  A
C529        N534   1.438       .  S
C530        H535   1.083       .  S
N531        H551   1.043       .  S
N531        H552   1.046       .  S
C533        C536   1.403       .  A
C533        C540   1.409   1_554  A
N534        H549   1.046       .  S
N534        H550   1.045       .  S
C536        C537   1.406       .  A
C536        H541   1.084       .  S
C537        C538   1.417       .  A
C537        N542   1.438       .  S
C538        C539   1.409   1_554  A
C539        C540   1.404       .  A
C539        H543   1.083       .  S
C540        N544   1.438       .  S
N542        H545   1.046       .  S
N542        H546   1.045       .  S
N544        H547   1.046       .  S
N544        H548   1.045       .  S
C553        C554   1.407       .  A
C553        C558   1.401       .  A
C554        C555   1.403       .  A
C554        N559   1.436       .  S
C555        C556   1.403       .  A
C555        H560   1.084       .  S
C556        C557   1.410       .  A
C556        C561   1.478       .  S
C557        C558   1.403       .  A
C557        N562   1.438   1_554  S
C558        H563   1.083   1_554  S
N559        H579   1.046       .  S
N559        H580   1.046       .  S
C561        C564   1.398       .  A
C561        C568   1.407       .  A
N562        H577   1.046       .  S
N562        H578   1.045       .  S
C564        C565   1.404       .  A
C564        H569   1.084       .  S
C565        C566   1.421       .  A
C565        N570   1.438       .  S
C566        C567   1.408       .  A
C567        C568   1.404       .  A
C567        H571   1.083   1_554  S
C568        N572   1.438   1_554  S
N570        H573   1.046       .  S
N570        H574   1.045       .  S
N572        H575   1.046       .  S
N572        H576   1.046       .  S
C581        C582   1.421       .  A
C581        C586   1.409       .  A
C582        C583   1.405       .  A
C582        N587   1.438       .  S
C583        C584   1.400       .  A
C583        H588   1.084       .  S
C584        C585   1.412       .  A
C584        C589   1.478       .  S
C585        C586   1.398       .  A
C585        N590   1.440       .  S
C586        H591   1.077       .  S
N587        H607   1.045       .  S
N587        H608   1.046       .  S
C589        C592   1.400       .  A
C589        C596   1.412       .  A
N590        H605   1.045       .  S
N590        H606   1.043       .  S
C592        C593   1.401       .  A
C592        H597   1.084       .  S
C593        C594   1.428       .  A
C593        N598   1.439       .  S
C594        C595   1.409       .  A
C595        C596   1.397       .  A
C595        H599   1.077       .  S
C596        N600   1.440       .  S
N598        H601   1.045       .  S
N598        H602   1.040       .  S
N600        H603   1.046       .  S
N600        H604   1.042       .  S
C609        C610   1.433       .  A
C609        C614   1.408       .  A
C610        C611   1.402       .  A
C610        N615   1.440       .  S
C611        C612   1.399       .  A
C611        H616   1.084       .  S
C612        C613   1.415       .  A
C612        C617   1.489       .  S
C613        C614   1.403       .  A
C613        N618   1.440       .  S
C614        H619   1.074       .  S
N615        H635   1.041       .  S
N615        H636   1.042       .  S
C617        C620   1.399       .  A
C617        C624   1.415       .  A
N618        H633   1.046       .  S
N618        H634   1.042       .  S
C620        C621   1.406       .  A
C620        H625   1.084       .  S
C621        C622   1.424       .  A
C621        N626   1.438       .  S
C622        C623   1.409       .  A
C623        C624   1.405       .  A
C623        H627   1.076       .  S
C624        N628   1.440       .  S
N626        H629   1.046       .  S
N626        H630   1.044       .  S
N628        H631   1.046       .  S
N628        H632   1.043       .  S
