geometry optimzed in LAMMPS
_audit_creation_date              2020-12-01 
_audit_creation_method            'lammps2cif' 
_symmetry_space_group_name_H-M    'P1' 
_symmetry_Int_Tables_number       1 
_symmetry_cell_setting            triclinic 
loop_ 
_symmetry_equiv_pos_as_xyz 
  x,y,z 
_cell_length_a                    106.19185361 
_cell_length_b                    105.94836891311768 
_cell_length_c                    106.12366743437492 
_cell_angle_alpha                 89.78053511273835 
_cell_angle_beta                  90.05451878371572 
_cell_angle_gamma                 89.94133669327377 
loop_ 
_atom_site_label 
_atom_site_type_symbol 
_atom_site_fract_x 
_atom_site_fract_y 
_atom_site_fract_z 
_atom_site_charge 
N1          N  0.77775887  0.19877401  0.44078913    -0.03200
C2          C  0.77698864  0.18846266  0.43319689    -0.00600
C3          C  0.78151617  0.17797571  0.43954216    -0.23500
C4          C  0.78537784  0.18198018  0.45125075    -0.23700
C5          C  0.78309873  0.19482191  0.45178049    -0.00700
H6          H  0.78221892  0.16846787  0.43591817     0.13100
H7          H  0.78955285  0.17616743  0.45854960     0.13100
N8          N  0.74719353  0.28704174  0.44433688    -0.03200
C9          C  0.74481974  0.29653983  0.43593884    -0.00600
C10         C  0.73993558  0.30687805  0.44218000    -0.23500
C11         C  0.73916434  0.30368713  0.45470232    -0.23700
C12         C  0.74359955  0.29147159  0.45584479    -0.00700
H13         H  0.73686937  0.31568826  0.43798498     0.13100
H14         H  0.73525597  0.30947400  0.46211752     0.13100
N15         N  0.71558621  0.25513942  0.54967719    -0.03200
C16         C  0.70527309  0.25362474  0.55714699    -0.00600
C17         C  0.69463611  0.25756202  0.55065838    -0.23500
C18         C  0.69850138  0.26148911  0.53891963    -0.23700
C19         C  0.71142668  0.26005337  0.53857453    -0.00700
H20         H  0.68510605  0.25799372  0.55423144     0.13100
H21         H  0.69255702  0.26530659  0.53154289     0.13100
N22         N  0.80679564  0.23569544  0.54534611    -0.03200
C23         C  0.81644513  0.23555773  0.55390255    -0.00600
C24         C  0.82750036  0.23196859  0.54803648    -0.23500
C25         C  0.82467445  0.22969095  0.53564996    -0.23700
C26         C  0.81196083  0.23203811  0.53412154    -0.00700
H27         H  0.83660845  0.23066732  0.55244318     0.13100
H28         H  0.83114439  0.22622828  0.52858699     0.13100
N29         N  0.71679196  0.22763763  0.94181076    -0.03200
C30         C  0.70765966  0.22519163  0.93315731    -0.00600
C31         C  0.69693827  0.22076770  0.93909746    -0.23500
C32         C  0.69943728  0.22064511  0.95179649    -0.23700
C33         C  0.71161193  0.22495152  0.95318998    -0.00700
H34         H  0.68817007  0.21807989  0.93465246     0.13100
H35         H  0.69311592  0.21764512  0.95921551     0.13100
N36         N  0.80462232  0.26127928  0.94164022    -0.03200
C37         C  0.81340306  0.26344187  0.93252203    -0.00600
C38         C  0.82444480  0.26770840  0.93793522    -0.23500
C39         C  0.82236571  0.26844854  0.95067214    -0.23700
C40         C  0.81019632  0.26430448  0.95280604    -0.00700
H41         H  0.83305999  0.27020861  0.93309692     0.13100
H42         H  0.82897736  0.27191623  0.95760224     0.13100
N43         N  0.73428130  0.20521032  0.05199905    -0.03200
C44         C  0.73432558  0.19491462  0.05973446    -0.00600
C45         C  0.72830932  0.18493016  0.05393600    -0.23500
C46         C  0.72456623  0.18908907  0.04225959    -0.23700
C47         C  0.72834658  0.20152859  0.04125141    -0.00700
H48         H  0.72699013  0.17552849  0.05773137     0.13100
H49         H  0.71995537  0.18350514  0.03509550     0.13100
N50         N  0.78361967  0.28590636  0.05126824    -0.03200
C51         C  0.78696087  0.29428704  0.06043815    -0.00600
C52         C  0.79433613  0.30375644  0.05533982    -0.23500
C53         C  0.79577769  0.30111489  0.04280024    -0.23700
C54         C  0.78889550  0.29031672  0.04036800    -0.00700
H55         H  0.79822321  0.31181467  0.06021667     0.13100
H56         H  0.80125261  0.30657309  0.03613916     0.13100
N57         N  0.80566039  0.93767063  0.26043799    -0.03200
C58         C  0.81587641  0.93010601  0.25869670    -0.00600
C59         C  0.82684059  0.93673337  0.26098126    -0.23500
C60         C  0.82334231  0.94880915  0.26405042    -0.23700
C61         C  0.81033049  0.94917658  0.26371454    -0.00700
H62         H  0.83636516  0.93310977  0.26063460     0.13100
H63         H  0.82961805  0.95650193  0.26636513     0.13100
N64         N  0.71677495  0.93688580  0.22956005    -0.03200
C65         C  0.70685437  0.92881888  0.23067330    -0.00600
C66         C  0.69587540  0.93455651  0.22664498    -0.23500
C67         C  0.69898806  0.94660498  0.22310359    -0.23700
C68         C  0.71182517  0.94784189  0.22489360    -0.00700
H69         H  0.68659011  0.93037117  0.22626800     0.13100
H70         H  0.69257109  0.95372048  0.21955071     0.13100
N71         N  0.77648796  0.04476057  0.28614367    -0.03200
C72         C  0.77677538  0.05282159  0.29609544    -0.00600
C73         C  0.78100173  0.04661556  0.30677050    -0.23500
C74         C  0.78316811  0.03428074  0.30338831    -0.23700
C75         C  0.78033094  0.03339087  0.29072351    -0.00700
H76         H  0.78223970  0.05061812  0.31605532     0.13100
H77         H  0.78651489  0.02677777  0.30947848     0.13100
N78         N  0.73986371  0.04476501  0.20020976    -0.03200
C79         C  0.73625985  0.05284284  0.19092725    -0.00600
C80         C  0.72986116  0.04640824  0.18161008    -0.23500
C81         C  0.72938067  0.03396402  0.18535168    -0.23700
C82         C  0.73545203  0.03323508  0.19685158    -0.00700
H83         H  0.72592276  0.05036293  0.17305394     0.13100
H84         H  0.72484407  0.02631781  0.18037415     0.13100
O85         O  0.75122939  0.29559198  0.17365768    -0.74200
O86         O  0.75496224  0.33161585  0.17414456    -0.74200
O87         O  0.75553220  0.31330584  0.15583686    -0.74200
O88         O  0.75058879  0.31365602  0.19169396    -0.74300
O89         O  0.77131423  0.31195825  0.19462551    -0.74200
O90         O  0.77613392  0.31051177  0.15888080    -0.74200
O91         O  0.77569171  0.32939963  0.17659427    -0.74200
O92         O  0.77182809  0.29340850  0.17718706    -0.74200
Ni93       Ni  0.75234922  0.31367143  0.17368951     1.25400
Ni94       Ni  0.77448479  0.31129530  0.17687660     1.25400
C95         C  0.76090407  0.28858100  0.17551466     0.88000
C96         C  0.76589631  0.33644869  0.17587128     0.88000
C97         C  0.76658495  0.31114712  0.15149880     0.88000
C98         C  0.76014372  0.31296362  0.19905448     0.88200
O99         O  0.74044353  0.31110479  0.29886751    -0.74200
O100        O  0.73891617  0.30922828  0.33491135    -0.74200
O101        O  0.73827684  0.32843394  0.31727111    -0.74200
O102        O  0.74126369  0.29228313  0.31611394    -0.74300
O103        O  0.76214069  0.29401329  0.31733949    -0.74200
O104        O  0.75914705  0.32995644  0.31828351    -0.74200
O105        O  0.75979120  0.31107678  0.33604660    -0.74200
O106        O  0.76136883  0.31255352  0.29987250    -0.74200
Ni107      Ni  0.73897182  0.31025377  0.31681979     1.25400
Ni108      Ni  0.76133992  0.31201322  0.31796969     1.25400
C109        C  0.75115961  0.31200833  0.29343318     0.88000
C110        C  0.74911372  0.30923780  0.34138847     0.88000
C111        C  0.74829790  0.33519424  0.31735621     0.88000
C112        C  0.75222933  0.28720809  0.31654648     0.88200
O113        O  0.74002441  0.17055132  0.19203034    -0.74200
O114        O  0.73926220  0.17099718  0.15578876    -0.74200
O115        O  0.73830244  0.15252110  0.17394446    -0.74200
O116        O  0.74095881  0.18871086  0.17400999    -0.74300
O117        O  0.76187805  0.18716406  0.17328944    -0.74200
O118        O  0.75924731  0.15106989  0.17376261    -0.74200
O119        O  0.76016199  0.16930405  0.15531543    -0.74200
O120        O  0.76094564  0.16925565  0.19149091    -0.74200
Ni121      Ni  0.73888323  0.17069938  0.17391756     1.25400
Ni122      Ni  0.76128346  0.16908652  0.17340572     1.25400
C123        C  0.75066764  0.17015200  0.19775139     0.88000
C124        C  0.74961191  0.17066034  0.14957309     0.88000
C125        C  0.74837942  0.14585302  0.17439334     0.88000
C126        C  0.75186343  0.19389030  0.17380754     0.88200
O127        O  0.74766969  0.18567568  0.31832372    -0.74200
O128        O  0.74995274  0.14951766  0.31717422    -0.74200
O129        O  0.75069527  0.16749106  0.33607221    -0.74200
O130        O  0.74693485  0.16814081  0.29994790    -0.74300
O131        O  0.76780970  0.16896727  0.29787295    -0.74200
O132        O  0.77145978  0.16922135  0.33396103    -0.74200
O133        O  0.77085830  0.15089686  0.31570255    -0.74200
O134        O  0.76844496  0.18698838  0.31593009    -0.74200
Ni135      Ni  0.74807972  0.16759164  0.31802648     1.25400
Ni136      Ni  0.77037875  0.16901746  0.31583812     1.25400
C137        C  0.75767487  0.19231419  0.31714347     0.88000
C138        C  0.76075650  0.14429813  0.31573495     0.88000
C139        C  0.76166394  0.16884998  0.34101457     0.88000
C140        C  0.75676435  0.16878832  0.29297335     0.88200
N141        N  0.77503270  0.43790207  0.20009666    -0.03200
C142        C  0.77584875  0.42982138  0.19013899    -0.00600
C143        C  0.78175036  0.43569374  0.18008196    -0.23500
C144        C  0.78461001  0.44771498  0.18382301    -0.23700
C145        C  0.78043604  0.44885529  0.19606693    -0.00700
H146        H  0.78413996  0.43151688  0.17110579     0.13100
H147        H  0.78952751  0.45478463  0.17833121     0.13100
N148        N  0.74225379  0.43628304  0.28868487    -0.03200
C149        C  0.74180399  0.42833181  0.29883849    -0.00600
C150        C  0.73632640  0.43435255  0.30900557    -0.23500
C151        C  0.73339283  0.44634945  0.30516621    -0.23700
C152        C  0.73703590  0.44728919  0.29273015    -0.00700
H153        H  0.73440055  0.43031873  0.31818766     0.13100
H154        H  0.72891592  0.45358416  0.31077608     0.13100
N155        N  0.80335625  0.54593349  0.22485879    -0.03200
C156        C  0.81342296  0.55386710  0.22507273    -0.00600
C157        C  0.82419586  0.54773350  0.22115205    -0.23500
C158        C  0.82079549  0.53553795  0.21860399    -0.23700
C159        C  0.80806096  0.53457976  0.22109813    -0.00700
H160        H  0.83352456  0.55173455  0.22023230     0.13100
H161        H  0.82696977  0.52809088  0.21537279     0.13100
N162        N  0.71855749  0.54580457  0.26525271    -0.03200
C163        C  0.70851413  0.55380688  0.26541433    -0.00600
C164        C  0.69818363  0.54805090  0.27083859    -0.23500
C165        C  0.70181272  0.53605060  0.27399873    -0.23700
C166        C  0.71431641  0.53487234  0.27058330    -0.00700
H167        H  0.68898898  0.55218407  0.27236551     0.13100
H168        H  0.69595078  0.52890080  0.27832889     0.13100
O169        O  0.70687747  0.81254824  0.23326695    -0.74200
O170        O  0.67077680  0.81126095  0.23205196    -0.74200
O171        O  0.68856255  0.83008884  0.23174580    -0.74200
O172        O  0.68926701  0.79389088  0.23362748    -0.74300
O173        O  0.68842755  0.79494661  0.25458409    -0.74200
O174        O  0.68791352  0.83107186  0.25269047    -0.74200
O175        O  0.66991952  0.81241722  0.25298687    -0.74200
O176        O  0.70617949  0.81337115  0.25423941    -0.74200
Ni177      Ni  0.68885664  0.81194277  0.23193201     1.25400
Ni178      Ni  0.68804278  0.81302181  0.25436570     1.25400
C179        C  0.71248749  0.81328406  0.24393452     0.88000
C180        C  0.66441132  0.81104620  0.24230961     0.88000
C181        C  0.68865789  0.83656458  0.24192941     0.88000
C182        C  0.68899011  0.78846134  0.24444010     0.88200
O183        O  0.83131945  0.68688324  0.25103788    -0.74200
O184        O  0.83236417  0.65112642  0.24644829    -0.74200
O185        O  0.84994413  0.67027387  0.24588603    -0.74200
O186        O  0.81404732  0.66805025  0.25143096    -0.74300
O187        O  0.81084142  0.67061267  0.23083213    -0.74200
O188        O  0.84654432  0.67283321  0.22535300    -0.74200
O189        O  0.82909050  0.65365979  0.22585423    -0.74200
O190        O  0.82809361  0.68954431  0.23047206    -0.74200
Ni191      Ni  0.83209092  0.66895559  0.24941832     1.25400
Ni192      Ni  0.82856754  0.67172841  0.22739741     1.25400
C193        C  0.82965377  0.69414094  0.24152281     0.88000
C194        C  0.83027519  0.64646034  0.23552206     0.88000
C195        C  0.85417393  0.67232207  0.23471252     0.88000
C196        C  0.80653114  0.66885340  0.24197837     0.88200
O197        O  0.70601290  0.67014838  0.26262245    -0.74200
O198        O  0.66972325  0.67077864  0.26412103    -0.74200
O199        O  0.68804383  0.65229793  0.26475874    -0.74200
O200        O  0.68786496  0.68839688  0.26213165    -0.74300
O201        O  0.68720830  0.68695888  0.24118573    -0.74200
O202        O  0.68700711  0.65086606  0.24385298    -0.74200
O203        O  0.66891769  0.66953250  0.24319026    -0.74200
O204        O  0.70501309  0.66860729  0.24171652    -0.74200
Ni205      Ni  0.68790899  0.67041021  0.26416228     1.25400
Ni206      Ni  0.68695999  0.66888502  0.24176188     1.25400
C207        C  0.71149120  0.66915555  0.25189261     0.88000
C208        C  0.66339484  0.67109843  0.25380619     0.88000
C209        C  0.68814580  0.64562772  0.25471441     0.88000
C210        C  0.68731952  0.69361669  0.25123900     0.88200
O211        O  0.83183933  0.79521133  0.23959783    -0.74200
O212        O  0.83310959  0.83122699  0.24184373    -0.74200
O213        O  0.85057714  0.81193020  0.24270718    -0.74200
O214        O  0.81456874  0.81407122  0.23882493    -0.74300
O215        O  0.81239057  0.81306938  0.25969378    -0.74200
O216        O  0.84826061  0.81053251  0.26344803    -0.74200
O217        O  0.83107433  0.83000621  0.26270435    -0.74200
O218        O  0.82938178  0.79391496  0.26042064    -0.74200
Ni219      Ni  0.83264657  0.81321584  0.24001298     1.25400
Ni220      Ni  0.83023712  0.81188287  0.26230846     1.25400
C221        C  0.83054577  0.78862685  0.24964497     0.88000
C222        C  0.83176674  0.83659031  0.25256847     0.88000
C223        C  0.85535263  0.81009197  0.25367072     0.88000
C224        C  0.80755456  0.81398621  0.24865903     0.88200
N225        N  0.45250877  0.76869712  0.20513456    -0.03200
C226        C  0.44368100  0.77169902  0.19627821    -0.00600
C227        C  0.44769287  0.78172791  0.18902118    -0.23500
C228        C  0.45933011  0.78510457  0.19350092    -0.23700
C229        C  0.46213904  0.77712270  0.20349661    -0.00700
H230        H  0.44262978  0.78617632  0.18134076     0.13100
H231        H  0.46513724  0.79267622  0.18986996     0.13100
N232        N  0.45342026  0.72182263  0.28594205    -0.03200
C233        C  0.44530308  0.72160928  0.29581696    -0.00600
C234        C  0.45063817  0.71518982  0.30585087    -0.23500
C235        C  0.46233950  0.71119078  0.30195587    -0.23700
C236        C  0.46379008  0.71530925  0.28965906    -0.00700
H237        H  0.44640184  0.71346685  0.31496584     0.13100
H238        H  0.46911133  0.70595701  0.30753416     0.13100
N239        N  0.56272802  0.70044704  0.26281229    -0.03200
C240        C  0.57108278  0.69071921  0.26331153    -0.00600
C241        C  0.56497800  0.67970446  0.26674060    -0.23500
C242        C  0.55245334  0.68265554  0.26813291    -0.23700
C243        C  0.55130456  0.69537814  0.26552941    -0.00700
H244        H  0.56914986  0.67042929  0.26772883     0.13100
H245        H  0.54493899  0.67617957  0.27050434     0.13100
N246        N  0.56138335  0.79075382  0.23535107    -0.03200
C247        C  0.56988503  0.80044259  0.23494517    -0.00600
C248        C  0.56389165  0.81153464  0.23154390    -0.23500
C249        C  0.55139016  0.80877704  0.23001222    -0.23700
C250        C  0.54998458  0.79602581  0.23239924    -0.00700
H251        H  0.56820062  0.82070843  0.23029546     0.13100
H252        H  0.54406492  0.81538724  0.22736412     0.13100
N253        N  0.95585536  0.69781376  0.22258550    -0.03200
C254        C  0.94684049  0.68991859  0.21783358    -0.00600
C255        C  0.95251615  0.68088664  0.21032722    -0.23500
C256        C  0.96523977  0.68317706  0.21045310    -0.23700
C257        C  0.96714038  0.69356021  0.21802159    -0.00700
H258        H  0.94790875  0.67309888  0.20563715     0.13100
H259        H  0.97241757  0.67757846  0.20587525     0.13100
N260        N  0.95349140  0.77716307  0.27363407    -0.03200
C261        C  0.94462154  0.78626093  0.27550252    -0.00600
C262        C  0.94893787  0.79501199  0.28410961    -0.23500
C263        C  0.96094191  0.79147248  0.28736800    -0.23700
C264        C  0.96360291  0.78054786  0.28081775    -0.00700
H265        H  0.94407768  0.80342494  0.28721924     0.13100
H266        H  0.96738438  0.79678078  0.29321104     0.13100
N267        N  0.07032398  0.70909113  0.21676050    -0.03200
C268        C  0.08062463  0.70483049  0.21041034    -0.00600
C269        C  0.07730132  0.69457999  0.20309263    -0.23500
C270        C  0.06463419  0.69257176  0.20489557    -0.23700
C271        C  0.06048303  0.70173789  0.21315645    -0.00700
H272        H  0.08328020  0.68958205  0.19653303     0.13100
H273        H  0.05891768  0.68559865  0.20015095     0.13100
N274        N  0.06784370  0.77779722  0.28090296    -0.03200
C275        C  0.07767663  0.78322143  0.28707100    -0.00600
C276        C  0.07399920  0.79454075  0.29227557    -0.23500
C277        C  0.06143194  0.79598697  0.28952918    -0.23700
C278        C  0.05771016  0.78550382  0.28267528    -0.00700
H279        H  0.07964360  0.80068520  0.29812177     0.13100
H280        H  0.05543469  0.80351515  0.29290156     0.13100
N281        N  0.27584290  0.78722458  0.94095293    -0.03200
C282        C  0.27501428  0.79740304  0.93312703    -0.00600
C283        C  0.27959801  0.80804594  0.93905966    -0.23500
C284        C  0.28308945  0.80442380  0.95100308    -0.23700
C285        C  0.28050914  0.79168274  0.95204547    -0.00700
H286        H  0.28025680  0.81746213  0.93512916     0.13100
H287        H  0.28691762  0.81047724  0.95824673     0.13100
N288        N  0.24327409  0.69904567  0.94203416    -0.03200
C289        C  0.24406976  0.68894760  0.93406401    -0.00600
C290        C  0.24092154  0.67795984  0.94037489    -0.23500
C291        C  0.23812547  0.68122879  0.95252990    -0.23700
C292        C  0.23975642  0.69411572  0.95343318    -0.00700
H293        H  0.24065720  0.66852743  0.93650344     0.13100
H294        H  0.23520135  0.67487156  0.95997732     0.13100
N295        N  0.30146660  0.75828847  0.04920877    -0.03200
C296        C  0.31172288  0.75761805  0.05687391    -0.00600
C297        C  0.32238161  0.76164871  0.05061496    -0.23500
C298        C  0.31866972  0.76481918  0.03862459    -0.23700
C299        C  0.30587578  0.76256403  0.03791493    -0.00700
H300        H  0.33182532  0.76226311  0.05440281     0.13100
H301        H  0.32466782  0.76833040  0.03115718     0.13100
N302        N  0.21546472  0.72159822  0.05131151    -0.03200
C303        C  0.20551260  0.72165828  0.05939219    -0.00600
C304        C  0.19455971  0.71848678  0.05315615    -0.23500
C305        C  0.19778944  0.71637307  0.04081600    -0.23700
C306        C  0.21059384  0.71848898  0.03983546    -0.00700
H307        H  0.18525067  0.71762681  0.05720903     0.13100
H308        H  0.19148103  0.71354408  0.03332834     0.13100
O309        O  0.18720651  0.74857341  0.19240734    -0.74200
O310        O  0.18728893  0.74407870  0.15675939    -0.74200
O311        O  0.16899105  0.74459275  0.17539492    -0.74200
O312        O  0.20518259  0.74782701  0.17432701    -0.74300
O313        O  0.20699517  0.72701217  0.17691412    -0.74200
O314        O  0.17109920  0.72377875  0.17774749    -0.74200
O315        O  0.18928235  0.72327835  0.15923825    -0.74200
O316        O  0.18917898  0.72777667  0.19516853    -0.74200
Ni317      Ni  0.18703535  0.74699413  0.17455812     1.25400
Ni318      Ni  0.18914108  0.72471462  0.17732340     1.25400
C319        C  0.18824870  0.73896519  0.19965019     0.88000
C320        C  0.18922240  0.73310402  0.15213666     0.88000
C321        C  0.16414910  0.73366744  0.17744003     0.88000
C322        C  0.21202473  0.73787702  0.17535033     0.88200
O323        O  0.31205098  0.75452149  0.17328904    -0.74200
O324        O  0.34811572  0.75728430  0.17338663    -0.74200
O325        O  0.32980700  0.75650643  0.15526259    -0.74200
O326        O  0.33015998  0.75536331  0.19131669    -0.74300
O327        O  0.33165346  0.73437818  0.19076971    -0.74200
O328        O  0.33137056  0.73555039  0.15459333    -0.74200
O329        O  0.34972733  0.73634263  0.17291763    -0.74200
O330        O  0.31361514  0.73354368  0.17275576    -0.74200
Ni331      Ni  0.33001479  0.75665465  0.17330569     1.25400
Ni332      Ni  0.33170143  0.73420668  0.17269213     1.25400
C333        C  0.30688860  0.74359325  0.17296457     0.88000
C334        C  0.35488257  0.74725248  0.17370492     0.88000
C335        C  0.33011191  0.74622245  0.14896906     0.88000
C336        C  0.33077790  0.74468745  0.19698678     0.88200
O337        O  0.18634945  0.74260169  0.29991064    -0.74200
O338        O  0.18771373  0.74506498  0.33581441    -0.74200
O339        O  0.16896229  0.74657847  0.31782117    -0.74200
O340        O  0.20473312  0.74120129  0.31743309    -0.74300
O341        O  0.20778585  0.76196751  0.31607682    -0.74200
O342        O  0.17203204  0.76729601  0.31608669    -0.74200
O343        O  0.19052978  0.76586175  0.33429956    -0.74200
O344        O  0.18962454  0.76332927  0.29824211    -0.74200
Ni345      Ni  0.18677140  0.74314460  0.31787731     1.25400
Ni346      Ni  0.19004382  0.76536938  0.31618532     1.25400
C347        C  0.18796838  0.75250367  0.29316582     0.88000
C348        C  0.19008479  0.75573278  0.34093686     0.88000
C349        C  0.16461034  0.75775095  0.31609293     0.88000
C350        C  0.21215353  0.75069261  0.31651853     0.88200
O351        O  0.33163352  0.75115337  0.29853789    -0.74200
O352        O  0.33023238  0.74843499  0.33462114    -0.74200
O353        O  0.34914219  0.74870990  0.31678050    -0.74200
O354        O  0.31307153  0.75091056  0.31595657    -0.74300
O355        O  0.31181913  0.72992598  0.31486063    -0.74200
O356        O  0.34787812  0.72780340  0.31515106    -0.74200
O357        O  0.32927195  0.72748966  0.33318378    -0.74200
O358        O  0.33021968  0.73021528  0.29711672    -0.74200
Ni359      Ni  0.33110874  0.75054018  0.31659416     1.25400
Ni360      Ni  0.32979498  0.72811458  0.31506947     1.25400
C361        C  0.33121327  0.74109333  0.29189138     0.88000
C362        C  0.32886781  0.73756682  0.33982511     0.88000
C363        C  0.35447553  0.73792504  0.31546567     0.88000
C364        C  0.30652705  0.74078981  0.31520245     0.88200
N365        N  0.24458525  0.78788547  0.55006910    -0.03200
C366        C  0.24441035  0.79789790  0.55809804    -0.00600
C367        C  0.23949438  0.80844123  0.55214280    -0.23500
C368        C  0.23627801  0.80485351  0.54017523    -0.23700
C369        C  0.23940981  0.79226229  0.53916865    -0.00700
H370        H  0.23810641  0.81769141  0.55620898     0.13100
H371        H  0.23192843  0.81072115  0.53302224     0.13100
N372        N  0.27744904  0.69909326  0.54955606    -0.03200
C373        C  0.27854903  0.68920932  0.55779381    -0.00600
C374        C  0.28518088  0.67944600  0.55224163    -0.23500
C375        C  0.28812035  0.68323989  0.54024723    -0.23700
C376        C  0.28328777  0.69524115  0.53878995    -0.00700
H377        H  0.28786611  0.67058021  0.55657593     0.13100
H378        H  0.29344034  0.67792098  0.53337838     0.13100
N379        N  0.30369805  0.72627234  0.44156872    -0.03200
C380        C  0.31324756  0.72565868  0.43297672    -0.00600
C381        C  0.32406302  0.72102429  0.43857971    -0.23500
C382        C  0.32123150  0.71871745  0.45096414    -0.23700
C383        C  0.30879786  0.72213646  0.45266109    -0.00700
H384        H  0.33306900  0.71944305  0.43408309     0.13100
H385        H  0.32757522  0.71495341  0.45803120     0.13100
N386        N  0.21774388  0.76556818  0.44164132    -0.03200
C387        C  0.20785775  0.76490059  0.43344911    -0.00600
C388        C  0.19674764  0.76811349  0.43939134    -0.23500
C389        C  0.19973480  0.77086534  0.45161660    -0.23700
C390        C  0.21260428  0.76932760  0.45279012    -0.00700
H391        H  0.18744339  0.76844455  0.43522857     0.13100
H392        H  0.19321188  0.77367333  0.45891991     0.13100
O393        O  0.24563013  0.79750297  0.67344922    -0.74200
O394        O  0.24388023  0.83369139  0.67406947    -0.74200
O395        O  0.24530275  0.81571738  0.65567999    -0.74200
O396        O  0.24421750  0.81519114  0.69174536    -0.74300
O397        O  0.26517857  0.81613516  0.69244461    -0.74200
O398        O  0.26624617  0.81665644  0.65635340    -0.74200
O399        O  0.26483256  0.83467913  0.67492729    -0.74200
O400        O  0.26657387  0.79842658  0.67411794    -0.74200
Ni401      Ni  0.24401860  0.81554906  0.67369137     1.25400
Ni402      Ni  0.26645481  0.81657154  0.67444845     1.25400
C403        C  0.25637433  0.79198056  0.67353020     0.88000
C404        C  0.25404455  0.84014084  0.67500680     0.88000
C405        C  0.25598840  0.81555697  0.65008968     0.88000
C406        C  0.25452012  0.81533386  0.69803159     0.88200
O407        O  0.26965656  0.66879399  0.79977592    -0.74200
O408        O  0.26889162  0.66966715  0.83606702    -0.74200
O409        O  0.26832173  0.65086227  0.81794208    -0.74200
O410        O  0.27035747  0.68708947  0.81755901    -0.74300
O411        O  0.24938380  0.68821129  0.81758011    -0.74200
O412        O  0.24740094  0.65213665  0.81712025    -0.74200
O413        O  0.24792904  0.67034161  0.83557182    -0.74200
O414        O  0.24874012  0.67040501  0.79942693    -0.74200
Ni415      Ni  0.27006161  0.66898844  0.81791446     1.25400
Ni416      Ni  0.24763341  0.67025092  0.81745739     1.25400
C417        C  0.25928137  0.66958920  0.79361862     0.88000
C418        C  0.25829056  0.67090039  0.84174222     0.88000
C419        C  0.25753226  0.64556043  0.81672325     0.88000
C420        C  0.26018024  0.69358807  0.81749973     0.88200
O421        O  0.24621279  0.81167672  0.79946080    -0.74200
O422        O  0.24805943  0.81296169  0.83556522    -0.74200
O423        O  0.24680070  0.83061677  0.81646957    -0.74200
O424        O  0.24757568  0.79435798  0.81814893    -0.74300
O425        O  0.26850052  0.79478610  0.81676135    -0.74200
O426        O  0.26780104  0.83085181  0.81594470    -0.74200
O427        O  0.26900731  0.81300432  0.83449080    -0.74200
O428        O  0.26714280  0.81240001  0.79839800    -0.74200
Ni429      Ni  0.24640596  0.81243744  0.81750199     1.25400
Ni430      Ni  0.26884401  0.81281418  0.81639724     1.25400
C431        C  0.25638212  0.81166150  0.79296979     0.88000
C432        C  0.25885132  0.81277798  0.84101021     0.88000
C433        C  0.25722937  0.83665514  0.81557049     0.88000
C434        C  0.25817192  0.78859978  0.81739132     0.88200
O435        O  0.27212909  0.69179860  0.67489119    -0.74200
O436        O  0.27568564  0.65582657  0.67655958    -0.74200
O437        O  0.27571206  0.67366485  0.65767310    -0.74200
O438        O  0.27206461  0.67424291  0.69358870    -0.74300
O439        O  0.25132065  0.67168631  0.69160479    -0.74200
O440        O  0.25497777  0.67170324  0.65553965    -0.74200
O441        O  0.25497058  0.65352433  0.67419013    -0.74200
O442        O  0.25130299  0.68973219  0.67319831    -0.74200
Ni443      Ni  0.27461983  0.67391419  0.67571817     1.25400
Ni444      Ni  0.25239669  0.67155778  0.67351496     1.25400
C445        C  0.26116658  0.69670093  0.67369487     0.88000
C446        C  0.26591083  0.64873986  0.67614672     0.88000
C447        C  0.26593074  0.67313837  0.65062144     0.88000
C448        C  0.26114696  0.67286215  0.69853032     0.88200
O449        O  0.82925007  0.23270024  0.69134865    -0.74200
O450        O  0.82607356  0.23162320  0.65527815    -0.74200
O451        O  0.84564597  0.23021032  0.67218494    -0.74200
O452        O  0.80981149  0.23411264  0.67477444    -0.74300
O453        O  0.81192118  0.25492712  0.67355733    -0.74200
O454        O  0.84784855  0.25110992  0.67162970    -0.74200
O455        O  0.82852522  0.25246359  0.65430365    -0.74200
O456        O  0.83095813  0.25366336  0.69046241    -0.74200
Ni457      Ni  0.82764052  0.23142227  0.67336743     1.25400
Ni458      Ni  0.82992444  0.25377529  0.67238970     1.25400
C459        C  0.83059989  0.24337039  0.69683111     0.88000
C460        C  0.82632301  0.24190051  0.64884919     0.88000
C461        C  0.85270011  0.24002072  0.67212434     0.88000
C462        C  0.80489058  0.24517903  0.67470962     0.88200
O463        O  0.70402757  0.25288015  0.81751387    -0.74200
O464        O  0.66790916  0.25083370  0.81960625    -0.74200
O465        O  0.68749806  0.24918415  0.83664431    -0.74200
O466        O  0.68478203  0.25441958  0.80082841    -0.74300
O467        O  0.68540306  0.23359658  0.79793301    -0.74200
O468        O  0.68888312  0.22843265  0.83349409    -0.74200
O469        O  0.66892086  0.23001594  0.81696151    -0.74200
O470        O  0.70495745  0.23217053  0.81424980    -0.74200
Ni471      Ni  0.68596349  0.25256590  0.81881524     1.25400
Ni472      Ni  0.68702049  0.23032235  0.81560446     1.25400
C473        C  0.71046330  0.24287697  0.81530773     0.88000
C474        C  0.66241098  0.24015062  0.81816849     0.88000
C475        C  0.68935552  0.23796564  0.84086116     0.88000
C476        C  0.68480766  0.24483411  0.79349116     0.88200
O477        O  0.68536729  0.25899951  0.69251509    -0.74200
O478        O  0.68624878  0.25802372  0.65623647    -0.74200
O479        O  0.66750506  0.25821027  0.67444473    -0.74200
O480        O  0.70373607  0.25897039  0.67481609    -0.74300
O481        O  0.70414412  0.23792251  0.67479964    -0.74200
O482        O  0.66797175  0.23723270  0.67537489    -0.74200
O483        O  0.68617002  0.23708899  0.65687764    -0.74200
O484        O  0.68622250  0.23800364  0.69295480    -0.74200
Ni485      Ni  0.68564028  0.25930637  0.67439955     1.25400
Ni486      Ni  0.68609088  0.23683257  0.67496464     1.25400
C487        C  0.68585022  0.24859417  0.69871407     0.88000
C488        C  0.68703666  0.24735545  0.65054726     0.88000
C489        C  0.66178885  0.24762561  0.67582747     0.88000
C490        C  0.70988216  0.24855793  0.67488201     0.88200
O491        O  0.82979178  0.25896909  0.79676255    -0.74200
O492        O  0.82723332  0.26194093  0.83271470    -0.74200
O493        O  0.84662808  0.26213631  0.81542804    -0.74200
O494        O  0.81067597  0.25884272  0.81370750    -0.74300
O495        O  0.81239939  0.23800872  0.81615490    -0.74200
O496        O  0.84844909  0.24121088  0.81679986    -0.74200
O497        O  0.82960896  0.24112086  0.83471862    -0.74200
O498        O  0.83113219  0.23806222  0.79865115    -0.74200
Ni499      Ni  0.82855043  0.26121521  0.81465325     1.25400
Ni500      Ni  0.83048898  0.23886443  0.81672121     1.25400
C501        C  0.83101381  0.24803871  0.79177417     0.88000
C502        C  0.82755944  0.25197964  0.83961586     0.88000
C503        C  0.85345785  0.25215008  0.81549558     0.88000
C504        C  0.80560583  0.24790681  0.81457904     0.88200
N505        N  0.21505255  0.43953009  0.75834225    -0.03200
C506        C  0.20472320  0.43194242  0.75826949    -0.00600
C507        C  0.19436505  0.43846715  0.76266670    -0.23500
C508        C  0.19848053  0.45035218  0.76581378    -0.23700
C509        C  0.21120516  0.45081015  0.76308483    -0.00700
H510        H  0.18493254  0.43481216  0.76390252     0.13100
H511        H  0.19285642  0.45779284  0.76993032     0.13100
N512        N  0.30181235  0.43734992  0.72426026    -0.03200
C513        C  0.31018773  0.42826884  0.72067457    -0.00600
C514        C  0.31864876  0.43306560  0.71206332    -0.23500
C515        C  0.31550190  0.44549095  0.71021864    -0.23700
C516        C  0.30523775  0.44803438  0.71784234    -0.00700
H517        H  0.32630811  0.42803731  0.70760268     0.13100
H518        H  0.32016721  0.45198478  0.70386751     0.13100
N519        N  0.27553194  0.54673359  0.70103378    -0.03200
C520        C  0.27836736  0.55570761  0.69228309    -0.00600
C521        C  0.28289375  0.55007872  0.68147477    -0.23500
C522        C  0.28312351  0.53730893  0.68371148    -0.23700
C523        C  0.27846989  0.53537489  0.69575280    -0.00700
H524        H  0.28588690  0.55478151  0.67291886     0.13100
H525        H  0.28667763  0.53022203  0.67731853     0.13100
N526        N  0.25045685  0.54373642  0.79088298    -0.03200
C527        C  0.24937965  0.55143771  0.80111750    -0.00600
C528        C  0.24455540  0.54465772  0.81119938    -0.23500
C529        C  0.24242572  0.53258964  0.80708745    -0.23700
C530        C  0.24590970  0.53228092  0.79458004    -0.00700
H531        H  0.24241334  0.54824494  0.82049055     0.13100
H532        H  0.23833429  0.52495637  0.81250773     0.13100
N533        N  0.23612487  0.93918242  0.70421067    -0.03200
C534        C  0.23742704  0.93172233  0.69389887    -0.00600
C535        C  0.23455454  0.93846406  0.68311258    -0.23500
C536        C  0.23146374  0.95048764  0.68687271    -0.23700
C537        C  0.23247583  0.95073053  0.69987702    -0.00700
H538        H  0.23477378  0.93501826  0.67352931     0.13100
H539        H  0.22894968  0.95827767  0.68074319     0.13100
N540        N  0.27151578  0.93765288  0.79128626    -0.03200
C541        C  0.27366965  0.92878424  0.80035910    -0.00600
C542        C  0.28039443  0.93395575  0.81020025    -0.23500
C543        C  0.28227215  0.94643686  0.80726116    -0.23700
C544        C  0.27655484  0.94860118  0.79572272    -0.00700
H545        H  0.28357842  0.92914399  0.81863652     0.13100
H546        H  0.28740328  0.95318583  0.81290638     0.13100
N547        N  0.21697802  0.04693850  0.73429381    -0.03200
C548        C  0.20838274  0.05592022  0.73110206    -0.00600
C549        C  0.19732868  0.05032123  0.72713687    -0.23500
C550        C  0.19922314  0.03751301  0.72765611    -0.23700
C551        C  0.21133839  0.03562583  0.73207916    -0.00700
H552        H  0.18885991  0.05507207  0.72398436     0.13100
H553        H  0.19262535  0.03034805  0.72465764     0.13100
N554        N  0.30488209  0.04375070  0.76576818    -0.03200
C555        C  0.31412664  0.05184532  0.76944997    -0.00600
C556        C  0.32383808  0.04515401  0.77504629    -0.23500
C557        C  0.32026494  0.03270870  0.77530047    -0.23700
C558        C  0.30860416  0.03199311  0.76951529    -0.00700
H559        H  0.33248204  0.04895778  0.77886812     0.13100
H560        H  0.32546284  0.02507010  0.77966955     0.13100
N561        N  0.95277980  0.26411139  0.78238162    -0.03200
C562        C  0.94408406  0.26585299  0.79166859    -0.00600
C563        C  0.94975950  0.27080546  0.80226649    -0.23500
C564        C  0.96236257  0.27193393  0.79960010    -0.23700
C565        C  0.96400238  0.26771351  0.78742109    -0.00700
H566        H  0.94525665  0.27295606  0.81114773     0.13100
H567        H  0.96962112  0.27522162  0.80595116     0.13100
N568        N  0.95357970  0.22511309  0.69705428    -0.03200
C569        C  0.94443200  0.22212099  0.68862131    -0.00600
C570        C  0.94933578  0.21490365  0.67901547    -0.23500
C571        C  0.96193515  0.21336757  0.68160540    -0.23700
C572        C  0.96442142  0.21984120  0.69265752    -0.00700
H573        H  0.94431473  0.21127276  0.67092803     0.13100
H574        H  0.96857948  0.20804590  0.67601118     0.13100
N575        N  0.06379916  0.28266003  0.76416551    -0.03200
C576        C  0.07189734  0.29254116  0.76364507    -0.00600
C577        C  0.06661303  0.30295205  0.76940167    -0.23500
C578        C  0.05481787  0.29938226  0.77344818    -0.23700
C579        C  0.05327357  0.28686588  0.77010193    -0.00700
H580        H  0.07086209  0.31216387  0.77048354     0.13100
H581        H  0.04798498  0.30536763  0.77806552     0.13100
N582        N  0.06205273  0.19815826  0.72336352    -0.03200
C583        C  0.07101328  0.18918325  0.72145255    -0.00600
C584        C  0.06613503  0.17932692  0.71454805    -0.23500
C585        C  0.05379250  0.18234281  0.71198799    -0.23700
C586        C  0.05148868  0.19402876  0.71731945    -0.00700
H587        H  0.07106032  0.17088887  0.71161718     0.13100
H588        H  0.04723048  0.17668791  0.70662445     0.13100
O589        O  0.18735896  0.19124234  0.73320874    -0.74200
O590        O  0.18945217  0.15548106  0.72858677    -0.74200
O591        O  0.17026371  0.17302927  0.72857557    -0.74200
O592        O  0.20613088  0.17399391  0.73324118    -0.74300
O593        O  0.20355332  0.17060986  0.75383472    -0.74200
O594        O  0.16764584  0.17053333  0.74925755    -0.74200
O595        O  0.18637689  0.15249033  0.74916279    -0.74200
O596        O  0.18508917  0.18843599  0.75388914    -0.74200
Ni597      Ni  0.18833091  0.17349067  0.73016599     1.25400
Ni598      Ni  0.18552346  0.17037379  0.75226415     1.25400
C599        C  0.18609680  0.19577340  0.74430999     0.88000
C600        C  0.18885001  0.14812254  0.73818136     0.88000
C601        C  0.16301389  0.17223162  0.73821087     0.88000
C602        C  0.21073853  0.17241162  0.74429750     0.88200
O603        O  0.18736423  0.29659723  0.75913582    -0.74200
O604        O  0.18688532  0.33281755  0.75962915    -0.74200
O605        O  0.16897167  0.31407033  0.75985418    -0.74200
O606        O  0.20510067  0.31490898  0.75891702    -0.74300
O607        O  0.20457322  0.31548520  0.73792874    -0.74200
O608        O  0.16835550  0.31423070  0.73889290    -0.74200
O609        O  0.18619214  0.33316897  0.73865842    -0.74200
O610        O  0.18703721  0.29695603  0.73812944    -0.74200
Ni611      Ni  0.18706420  0.31465349  0.76012218     1.25400
Ni612      Ni  0.18647156  0.31503950  0.73765800     1.25400
C613        C  0.18738549  0.29082335  0.74855062     0.88000
C614        C  0.18690172  0.33899400  0.74921140     0.88000
C615        C  0.16269727  0.31337456  0.74955158     0.88000
C616        C  0.21080282  0.31504492  0.74827833     0.88200
O617        O  0.32954001  0.29377679  0.73512363    -0.74200
O618        O  0.32940882  0.32987463  0.73124715    -0.74200
O619        O  0.34770243  0.31152849  0.73243924    -0.74200
O620        O  0.31147382  0.31185778  0.73398957    -0.74300
O621        O  0.31237901  0.31420540  0.75481506    -0.74200
O622        O  0.34854864  0.31331674  0.75334646    -0.74200
O623        O  0.33040278  0.33204502  0.75209695    -0.74200
O624        O  0.33015302  0.29596165  0.75591341    -0.74200
Ni625      Ni  0.32953824  0.31173235  0.73245393     1.25400
Ni626      Ni  0.33045923  0.31402136  0.75476542     1.25400
C627        C  0.32981681  0.28885712  0.74618827     0.88000
C628        C  0.32928027  0.33690870  0.74105603     0.88000
C629        C  0.35406019  0.31173082  0.74271927     0.88000
C630        C  0.30594668  0.31289372  0.74468098     0.88200
O631        O  0.32782395  0.18904367  0.76569800    -0.74200
O632        O  0.32884973  0.15299384  0.76982508    -0.74200
O633        O  0.34651179  0.17210420  0.76927070    -0.74200
O634        O  0.31053900  0.17032695  0.76622538    -0.74300
O635        O  0.31240632  0.16849512  0.74548059    -0.74200
O636        O  0.34852057  0.16941582  0.74857665    -0.74200
O637        O  0.33050054  0.15072195  0.74903810    -0.74200
O638        O  0.33029443  0.18675344  0.74495756    -0.74200
Ni639      Ni  0.32842371  0.17113102  0.76850151     1.25400
Ni640      Ni  0.33052548  0.16869666  0.74628857     1.25400
C641        C  0.32890819  0.19380172  0.75463360     0.88000
C642        C  0.32928971  0.14588957  0.76006584     0.88000
C643        C  0.35341926  0.17177255  0.75936783     0.88000
C644        C  0.30545417  0.16946460  0.75532846     0.88200
N645        N  0.56038154  0.23151583  0.79502468    -0.03200
C646        C  0.56821386  0.23300730  0.80509667    -0.00600
C647        C  0.56190594  0.23029079  0.81615178    -0.23500
C648        C  0.54979893  0.22715933  0.81287358    -0.23700
C649        C  0.54897386  0.22806979  0.79989033    -0.00700
H650        H  0.56579540  0.23028165  0.82558123     0.13100
H651        H  0.54239854  0.22429883  0.81927868     0.13100
N652        N  0.56049871  0.25492888  0.70433100    -0.03200
C653        C  0.56837050  0.25350880  0.69425869    -0.00600
C654        C  0.56159763  0.25402953  0.68314901    -0.23500
C655        C  0.54921477  0.25577420  0.68635162    -0.23700
C656        C  0.54866777  0.25612405  0.69935813    -0.00700
H657        H  0.56530705  0.25324752  0.67368788     0.13100
H658        H  0.54139261  0.25670419  0.67986751     0.13100
N659        N  0.45502384  0.19705834  0.76722289    -0.03200
C660        C  0.44703964  0.18709947  0.76871964    -0.00600
C661        C  0.45387232  0.17645392  0.77204597    -0.23500
C662        C  0.46629736  0.17999986  0.77285540    -0.23700
C663        C  0.46681544  0.19266461  0.76974275    -0.00700
H664        H  0.45020177  0.16708876  0.77380394     0.13100
H665        H  0.47408901  0.17401457  0.77563525     0.13100
N666        N  0.45490997  0.28461073  0.73486858    -0.03200
C667        C  0.44688791  0.29414716  0.73184874    -0.00600
C668        C  0.45335825  0.30386451  0.72606261    -0.23500
C669        C  0.46575626  0.30014236  0.72537794    -0.23700
C670        C  0.46651271  0.28828631  0.73085297    -0.00700
H671        H  0.44944068  0.31263694  0.72256457     0.13100
H672        H  0.47334733  0.30536538  0.72100502     0.13100
C673        C  0.44324675  0.23048605  0.76446799    -0.11100
C674        C  0.44933348  0.23438998  0.75337506     0.15400
C675        C  0.45684009  0.22566014  0.74670867     0.02300
C676        C  0.45794221  0.21328350  0.75113989    -0.15500
C677        C  0.45219003  0.20945585  0.76239859    -0.10300
C678        C  0.44476005  0.21817377  0.76914424     0.09000
C679        C  0.44869550  0.24782378  0.74951290     0.10100
S680        S  0.46575597  0.22983954  0.73284012    -0.24600
H681        H  0.46379774  0.20664908  0.74606105     0.20300
S682        S  0.43775075  0.21441275  0.78412506    -0.30300
H683        H  0.43769424  0.23721700  0.76975938     0.10700
C684        C  0.44260193  0.25169607  0.73833118     0.03900
C685        C  0.44422218  0.26411779  0.73395704    -0.12600
C686        C  0.45172514  0.27271255  0.74061289    -0.08300
C687        C  0.45689784  0.26908597  0.75232324     0.07300
C688        C  0.45544442  0.25667784  0.75659506    -0.13400
S689        S  0.43309224  0.24072177  0.72949473    -0.30300
H690        H  0.44012203  0.26700770  0.72507847     0.11600
S691        S  0.46555339  0.27985136  0.76212638    -0.27400
H692        H  0.45996181  0.25378104  0.76530284     0.08800
H693        H  0.44755189  0.20643675  0.78815122     0.27200
H694        H  0.42956236  0.24918069  0.71986734     0.22000
H695        H  0.45940257  0.29079325  0.75778157     0.27300
H696        H  0.46871045  0.24219649  0.73659644     0.16200
C697        C  0.51965667  0.25412272  0.72100691    -0.11100
C698        C  0.51311907  0.26505811  0.71723659     0.15400
C699        C  0.51831817  0.27270874  0.70764359     0.02300
C700        C  0.52996270  0.26959208  0.70239719    -0.15500
C701        C  0.53663700  0.25875703  0.70615157    -0.10300
C702        C  0.53119136  0.25072527  0.71537079     0.09000
C703        C  0.50114192  0.26879328  0.72353406     0.10100
S704        S  0.51050987  0.28660604  0.70158269    -0.24600
H705        H  0.53385946  0.27570728  0.69517753     0.20300
S706        S  0.53797679  0.23577950  0.71990376    -0.30300
H707        H  0.51564454  0.24810001  0.72823149     0.10700
C708        C  0.48952397  0.26304083  0.72058416     0.03900
C709        C  0.47817760  0.26893015  0.72421178    -0.12600
C710        C  0.47823282  0.28051160  0.73065302    -0.08300
C711        C  0.48993809  0.28558233  0.73456121     0.07300
C712        C  0.50117479  0.27967823  0.73099062    -0.13400
S713        S  0.48913238  0.24894512  0.71109613    -0.30300
H714        H  0.46928107  0.26504862  0.72111506     0.11600
S715        S  0.49134422  0.30000300  0.74345825    -0.27400
H716        H  0.51007663  0.28406071  0.73338606     0.08800
H717        H  0.54452151  0.23366683  0.70860387     0.27200
H718        H  0.47595460  0.24764575  0.71079940     0.22000
H719        H  0.47912054  0.30001233  0.74845215     0.27300
H720        H  0.49819177  0.28190304  0.70276646     0.16200
C721        C  0.51915648  0.22794320  0.77922483    -0.11100
C722        C  0.51411012  0.21606892  0.78237259     0.15400
C723        C  0.52084738  0.20823923  0.79081163     0.02300
C724        C  0.53234404  0.21230992  0.79577199    -0.15500
C725        C  0.53734024  0.22426644  0.79291467    -0.10300
C726        C  0.53050803  0.23224713  0.78460668     0.09000
C727        C  0.50175173  0.21196375  0.77706421     0.10100
S728        S  0.51509453  0.19305938  0.79598444    -0.24600
H729        H  0.53734856  0.20613911  0.80223374     0.20300
S730        S  0.53514744  0.24823675  0.78110686    -0.30300
H731        H  0.51398949  0.23406925  0.77285783     0.10700
C732        C  0.49024436  0.21699808  0.78144485     0.03900
C733        C  0.47880845  0.21113353  0.77813050    -0.12600
C734        C  0.47860450  0.20033555  0.77047517    -0.08300
C735        C  0.49008812  0.19601087  0.76525703     0.07300
C736        C  0.50147290  0.20175885  0.76868358    -0.13400
S737        S  0.49017615  0.23018428  0.79217034    -0.30300
H738        H  0.47008728  0.21446684  0.78219908     0.11600
S739        S  0.49088691  0.18302598  0.75435062    -0.27400
H740        H  0.51025400  0.19795461  0.76513770     0.08800
H741        H  0.54156238  0.25038821  0.79248280     0.27200
H742        H  0.47701691  0.23125325  0.79325660     0.22000
H743        H  0.47880565  0.18491768  0.74922721     0.27300
H744        H  0.50230055  0.19647417  0.79627059     0.16200
C745        C  0.56035746  0.25816076  0.73962604    -0.11100
C746        C  0.56654656  0.24700013  0.74331915     0.15400
C747        C  0.57218184  0.23945097  0.73389444     0.02300
C748        C  0.57037702  0.24247116  0.72117334    -0.15500
C749        C  0.56371658  0.25332163  0.71748233    -0.10300
C750        C  0.55942817  0.26169079  0.72691864     0.09000
C751        C  0.56600072  0.24289630  0.75679704     0.10100
S752        S  0.58173532  0.22579851  0.73742293    -0.24600
H753        H  0.57391533  0.23608629  0.71406448     0.20300
S754        S  0.55310785  0.27714471  0.72353242    -0.30300
H755        H  0.55609534  0.26415367  0.74668727     0.10700
C756        C  0.56973230  0.25081871  0.76682516     0.03900
C757        C  0.56807419  0.24671515  0.77931877    -0.12600
C758        C  0.56323797  0.23468268  0.78208831    -0.08300
C759        C  0.56054242  0.22641047  0.77205623     0.07300
C760        C  0.56136654  0.23078284  0.75962975    -0.13400
S761        S  0.57693028  0.26599037  0.76384914    -0.30300
H762        H  0.57031153  0.25298243  0.78702205     0.11600
S763        S  0.55677341  0.20999662  0.77440037    -0.27400
H764        H  0.55857567  0.22455333  0.75205479     0.08800
H765        H  0.55769292  0.27802461  0.71114956     0.27200
H766        H  0.57838488  0.26957515  0.77651744     0.22000
H767        H  0.56245751  0.20895430  0.78633365     0.27300
H768        H  0.58614867  0.23025494  0.74908772     0.16200
C769        C  0.41239450  0.17938913  0.77385912    -0.11100
C770        C  0.40690803  0.18343757  0.76254471     0.15400
C771        C  0.41451802  0.18985887  0.75362501     0.02300
C772        C  0.42748695  0.19145661  0.75600407    -0.15500
C773        C  0.43303412  0.18705629  0.76723783    -0.10300
C774        C  0.42518622  0.18124399  0.77637863     0.09000
C775        C  0.39320281  0.18087073  0.76076005     0.10100
S776        S  0.40839409  0.19606507  0.73899509    -0.24600
H777        H  0.43333013  0.19586007  0.74887900     0.20300
S778        S  0.43075336  0.17604163  0.79161419    -0.30300
H779        H  0.40659812  0.17470815  0.78086085     0.10700
C780        C  0.38874866  0.17115023  0.75285343     0.03900
C781        C  0.37577387  0.16828374  0.75258612    -0.12600
C782        C  0.36712949  0.17475634  0.76026365    -0.08300
C783        C  0.37168182  0.18463791  0.76799337     0.07300
C784        C  0.38455180  0.18754137  0.76815830    -0.13400
S785        S  0.39962587  0.16214416  0.74340057    -0.30300
H786        H  0.37235867  0.16084714  0.74651130     0.11600
S787        S  0.36142564  0.19447525  0.77721931    -0.27400
H788        H  0.38789712  0.19503416  0.77422519     0.08800
H789        H  0.44025052  0.18517659  0.79277699     0.27200
H790        H  0.39064455  0.15407341  0.73795664     0.22000
H791        H  0.35871781  0.18471572  0.78582568     0.27300
H792        H  0.39572763  0.19689257  0.74269363     0.16200
C793        C  0.38647598  0.29713536  0.74807255    -0.11100
C794        C  0.39417543  0.30481323  0.74054039     0.15400
C795        C  0.38863022  0.31515967  0.73408984     0.02300
C796        C  0.37556814  0.31721529  0.73486677    -0.15500
C797        C  0.36787621  0.30946176  0.74234389    -0.10300
C798        C  0.37349991  0.29934638  0.74904974     0.09000
C799        C  0.40764684  0.30114542  0.73874060     0.10100
S800        S  0.39773948  0.32619256  0.72488696    -0.24600
H801        H  0.37140059  0.32504321  0.72974524     0.20300
S802        S  0.36446158  0.28834978  0.75827582    -0.30300
H803        H  0.39054208  0.28906228  0.75288954     0.10700
C804        C  0.41636450  0.30083754  0.74881774     0.03900
C805        C  0.42899881  0.29750671  0.74649611    -0.12600
C806        C  0.43315118  0.29460925  0.73429252    -0.08300
C807        C  0.42434387  0.29459593  0.72429597     0.07300
C808        C  0.41174795  0.29775992  0.72664301    -0.13400
S809        S  0.41165763  0.30558825  0.76444770    -0.30300
H810        H  0.43582710  0.29781905  0.75407031     0.11600
S811        S  0.42859373  0.29108270  0.70821223    -0.27400
H812        H  0.40508744  0.29778050  0.71889884     0.08800
H813        H  0.35539936  0.28668172  0.74879418     0.27200
H814        H  0.42336778  0.30354692  0.77032271     0.22000
H815        H  0.43989340  0.28466794  0.71074725     0.27300
H816        H  0.40886384  0.32498245  0.73199475     0.16200
C817        C  0.31971503  0.22840398  0.75639306    -0.11100
C818        C  0.32989368  0.23411488  0.75018734     0.15400
C819        C  0.33972148  0.22647328  0.74546960     0.02300
C820        C  0.33894218  0.21333157  0.74671600    -0.15500
C821        C  0.32878717  0.20762842  0.75297547    -0.10300
C822        C  0.31902404  0.21528070  0.75778226     0.09000
C823        C  0.32996393  0.24805411  0.74895005     0.10100
S824        S  0.35361569  0.23287381  0.73805713    -0.24600
H825        H  0.34653399  0.20751807  0.74313203     0.20300
S826        S  0.30524152  0.20887447  0.76534718    -0.30300
H827        H  0.31215416  0.23422657  0.76002356     0.10700
C828        C  0.32772290  0.25414052  0.73735656     0.03900
C829        C  0.32771843  0.26738254  0.73678968    -0.12600
C830        C  0.32985652  0.27479127  0.74760129    -0.08300
C831        C  0.33208803  0.26852094  0.75928012     0.07300
C832        C  0.33202852  0.25528107  0.75975328    -0.13400
S833        S  0.32452648  0.24504019  0.72334816    -0.30300
H834        H  0.32593241  0.27196763  0.72783724     0.11600
S835        S  0.33514522  0.27694975  0.77376397    -0.27400
H836        H  0.33363807  0.25043658  0.76861265     0.08800
H837        H  0.30459753  0.19797621  0.75785516     0.27200
H838        H  0.32302716  0.25532510  0.71506039     0.22000
H839        H  0.33848478  0.26647080  0.78123147     0.27300
H840        H  0.35366645  0.24440629  0.74455329     0.16200
C841        C  0.24509087  0.30753095  0.75595546    -0.11100
C842        C  0.25141309  0.31492799  0.74700028     0.15400
C843        C  0.24433569  0.32221833  0.73835875     0.02300
C844        C  0.23114067  0.32193715  0.73885701    -0.15500
C845        C  0.22476895  0.31463553  0.74790888    -0.10300
C846        C  0.23191283  0.30716554  0.75640310     0.09000
C847        C  0.26536343  0.31437255  0.74658605     0.10100
S848        S  0.25155396  0.33202452  0.72646000    -0.24600
H849        H  0.22580382  0.32766174  0.73225872     0.20300
S850        S  0.22485181  0.29636694  0.76750158    -0.30300
H851        H  0.25048799  0.30173240  0.76244179     0.10700
C852        C  0.27280559  0.32126364  0.75511837     0.03900
C853        C  0.28598458  0.32034414  0.75450740    -0.12600
C854        C  0.29195256  0.31279834  0.74539966    -0.08300
C855        C  0.28437922  0.30555143  0.73715022     0.07300
C856        C  0.27122722  0.30656129  0.73771928    -0.13400
S857        S  0.26549603  0.33149157  0.76656403    -0.30300
H858        H  0.29165238  0.32566493  0.76107495     0.11600
S859        S  0.29082687  0.29424745  0.72625833    -0.27400
H860        H  0.26548848  0.30101493  0.73136306     0.08800
H861        H  0.21524667  0.29238674  0.75929582     0.27200
H862        H  0.27669085  0.33657171  0.77149538     0.22000
H863        H  0.30034262  0.28999370  0.73449078     0.27300
H864        H  0.26270977  0.33457115  0.73310371     0.16200
C865        C  0.24559675  0.18019279  0.74147216    -0.11100
C866        C  0.25102654  0.17022818  0.74835232     0.15400
C867        C  0.24306880  0.16126133  0.75419348     0.02300
C868        C  0.22997842  0.16248910  0.75309928    -0.15500
C869        C  0.22455888  0.17230991  0.74602353    -0.10300
C870        C  0.23250138  0.18135316  0.74028343     0.09000
C871        C  0.26493103  0.16991721  0.74998511     0.10100
S872        S  0.24902165  0.14787155  0.76290808    -0.24600
H873        H  0.22397170  0.15545599  0.75745948     0.20300
S874        S  0.22650952  0.19489499  0.73184512    -0.30300
H875        H  0.25161741  0.18727508  0.73721599     0.10700
C876        C  0.27315523  0.16802484  0.73975692     0.03900
C877        C  0.28622761  0.16791291  0.74182284    -0.12600
C878        C  0.29141115  0.16970661  0.75392934    -0.08300
C879        C  0.28298161  0.17170313  0.76415284     0.07300
C880        C  0.26996494  0.17170512  0.76204260    -0.13400
S881        S  0.26700968  0.16532017  0.72411473    -0.30300
H882        H  0.29242933  0.16634072  0.73390095     0.11600
S883        S  0.28792655  0.17440546  0.78015607    -0.27400
H884        H  0.26364424  0.17327337  0.76989986     0.08800
H885        H  0.21583659  0.19654609  0.73951160     0.27200
H886        H  0.27868462  0.16439064  0.71793632     0.22000
H887        H  0.29534633  0.18491355  0.77695869     0.27300
H888        H  0.26013555  0.14644420  0.75586177     0.16200
C889        C  0.18938174  0.22914620  0.75740741    -0.11100
C890        C  0.18467956  0.23634321  0.74731802     0.15400
C891        C  0.18017552  0.23011104  0.73648374     0.02300
C892        C  0.18082764  0.21695238  0.73581951    -0.15500
C893        C  0.18565432  0.20968729  0.74583776    -0.10300
C894        C  0.18995733  0.21595257  0.75679658     0.09000
C895        C  0.18547922  0.25030532  0.74795486     0.10100
S896        S  0.17339114  0.23838408  0.72321996    -0.24600
H897        H  0.17735041  0.21233382  0.72741379     0.20300
S898        S  0.19700309  0.20784874  0.76999525    -0.30300
H899        H  0.19303169  0.23388900  0.76567107     0.10700
C900        C  0.17873428  0.25728198  0.75700839     0.03900
C901        C  0.17983928  0.27047372  0.75719550    -0.12600
C902        C  0.18743767  0.27687604  0.74843503    -0.08300
C903        C  0.19439474  0.26982338  0.73954501     0.07300
C904        C  0.19329769  0.25666854  0.73938184    -0.13400
S905        S  0.16820257  0.24948691  0.76789295    -0.30300
H906        H  0.17443890  0.27587761  0.76394157     0.11600
S907        S  0.20513913  0.27693716  0.72845348    -0.27400
H908        H  0.19867462  0.25130596  0.73256839     0.08800
H909        H  0.20445914  0.19986073  0.76250161     0.27200
H910        H  0.16465663  0.26031744  0.77465167     0.22000
H911        H  0.20932285  0.28645022  0.73665589     0.27300
H912        H  0.16845033  0.24848825  0.73021049     0.16200
C913        C  0.10091767  0.18218706  0.73981999    -0.11100
C914        C  0.11025976  0.18571332  0.73108247     0.15400
C915        C  0.10646321  0.19187055  0.71982347     0.02300
C916        C  0.09361425  0.19333876  0.71711746    -0.15500
C917        C  0.08433811  0.18951997  0.72570936    -0.10300
C918        C  0.08805330  0.18427945  0.73734759     0.09000
C919        C  0.12366400  0.18186626  0.73337278     0.10100
S920        S  0.11752679  0.19800989  0.70847385    -0.24600
H921        H  0.09080661  0.19736663  0.70814002     0.20300
S922        S  0.07638324  0.17962292  0.74878499    -0.30300
H923        H  0.10367616  0.17735798  0.74839756     0.10700
C924        C  0.13032981  0.18538493  0.74434420     0.03900
C925        C  0.14291420  0.18148331  0.74594459    -0.12600
C926        C  0.14918960  0.17430201  0.73674236    -0.08300
C927        C  0.14239165  0.17054222  0.72592120     0.07300
C928        C  0.12979789  0.17429676  0.72440218    -0.13400
S929        S  0.12319755  0.19559485  0.75593349    -0.30300
H930        H  0.14810149  0.18457794  0.75415622     0.11600
S931        S  0.14912250  0.16075007  0.71381467    -0.27400
H932        H  0.12469749  0.17126142  0.71610191     0.08800
H933        H  0.08483606  0.17794872  0.75887502     0.27200
H934        H  0.13314970  0.19526947  0.76468617     0.22000
H935        H  0.15663696  0.15356551  0.72209276     0.27300
H936        H  0.12706880  0.20066485  0.71727212     0.16200
C937        C  0.06822907  0.24778538  0.76014000    -0.11100
C938        C  0.06596628  0.24648755  0.74717371     0.15400
C939        C  0.06337576  0.25737787  0.73986706     0.02300
C940        C  0.06364593  0.26925663  0.74554803    -0.15500
C941        C  0.06554140  0.27048944  0.75854063    -0.10300
C942        C  0.06792695  0.25964174  0.76591424     0.09000
C943        C  0.06585189  0.23364998  0.74165842     0.10100
S944        S  0.05879204  0.25671004  0.72350993    -0.24600
H945        H  0.06152227  0.27757765  0.73997728     0.20300
S946        S  0.07040240  0.26023316  0.78271251    -0.30300
H947        H  0.07009308  0.23946900  0.76582388     0.10700
C948        C  0.07454967  0.22994949  0.73233939     0.03900
C949        C  0.07322884  0.21812742  0.72660444    -0.12600
C950        C  0.06367485  0.20973244  0.73027295    -0.08300
C951        C  0.05567745  0.21305567  0.74036443     0.07300
C952        C  0.05668133  0.22504377  0.74575046    -0.13400
S953        S  0.08740123  0.24017520  0.72783734    -0.30300
H954        H  0.07938345  0.21555142  0.71893216     0.11600
S955        S  0.04429825  0.20236843  0.74707763    -0.27400
H956        H  0.05023264  0.22771325  0.75319109     0.08800
H957        H  0.07317822  0.27314217  0.78355833     0.27200
H958        H  0.09304921  0.23186870  0.71920528     0.22000
H959        H  0.05039696  0.19120977  0.74338583     0.27300
H960        H  0.05240657  0.24512663  0.72441181     0.16200
C961        C  0.10105616  0.30318365  0.74606460    -0.11100
C962        C  0.11054070  0.29701541  0.75294278     0.15400
C963        C  0.10706437  0.28784519  0.76201127     0.02300
C964        C  0.09427905  0.28571022  0.76460266    -0.15500
C965        C  0.08481323  0.29249439  0.75829613    -0.10300
C966        C  0.08828505  0.30097306  0.74858530     0.09000
C967        C  0.12376845  0.30147550  0.75159973     0.10100
S968        S  0.11851243  0.27909371  0.77107564    -0.24600
H969        H  0.09175902  0.27923368  0.77209447     0.20300
S970        S  0.07684939  0.30969810  0.73947410    -0.30300
H971        H  0.10362487  0.31017023  0.73904022     0.10700
C972        C  0.13107865  0.29890180  0.74083395     0.03900
C973        C  0.14354826  0.30339404  0.74013956    -0.12600
C974        C  0.14889931  0.31054585  0.74996354    -0.08300
C975        C  0.14124830  0.31350918  0.76048937     0.07300
C976        C  0.12893635  0.30883195  0.76124892    -0.13400
S977        S  0.12472012  0.28938207  0.72827408    -0.30300
H978        H  0.14929635  0.30091397  0.73210216     0.11600
S979        S  0.14637869  0.32365171  0.77303817    -0.27400
H980        H  0.12322477  0.31111382  0.76939018     0.08800
H981        H  0.06695604  0.30101845  0.74098516     0.27200
H982        H  0.13507515  0.29051844  0.72009308     0.22000
H983        H  0.15247561  0.33201348  0.76478457     0.27300
H984        H  0.12810626  0.27948451  0.76196170     0.16200
C985        C  0.00003270  0.21941287  0.69591033    -0.11100
C986        C  0.00163928  0.21534630  0.70840973     0.15400
C987        C  0.99097430  0.21529563  0.71644551     0.02300
C988        C  0.97888325  0.21729645  0.71135022    -0.15500
C989        C  0.97722793  0.22033304  0.69854066    -0.10300
C990        C  0.98810481  0.22229386  0.69105773     0.09000
C991        C  0.01432669  0.21041352  0.71227280     0.10100
S992        S  0.99216725  0.21270115  0.73321253    -0.24600
H993        H  0.97075283  0.21607245  0.71737132     0.20300
S994        S  0.98747274  0.22847652  0.67519536    -0.30300
H995        H  0.00812932  0.22007134  0.68973491     0.10700
C996        C  0.01599659  0.19783836  0.71648731     0.03900
C997        C  0.02818944  0.19323697  0.71884592    -0.12600
C998        C  0.03898114  0.20049427  0.71629812    -0.08300
C999        C  0.03732375  0.21286969  0.71148356     0.07300
C1000       C  0.02510823  0.21781325  0.71002877    -0.13400
S1001       S  0.00285063  0.18703566  0.71744466    -0.30300
H1002       H  0.02938219  0.18361630  0.72211149     0.11600
S1003       S  0.05010180  0.22231269  0.70548931    -0.27400
H1004       H  0.02399260  0.22728749  0.70630487     0.08800
H1005       H  0.97628927  0.23539368  0.67684979     0.27200
H1006       H  0.00939938  0.17690155  0.72300945     0.22000
H1007       H  0.05758592  0.21212749  0.70151768     0.27300
H1008       H  0.00479694  0.21651373  0.73431992     0.16200
C1009       C  0.99366448  0.27584300  0.76906270    -0.11100
C1010       C  0.00248469  0.26787152  0.77496898     0.15400
C1011       C  0.99810020  0.25857456  0.78347286     0.02300
C1012       C  0.98531373  0.25821749  0.78672870    -0.15500
C1013       C  0.97663759  0.26676618  0.78149013    -0.10300
C1014       C  0.98084629  0.27542873  0.77227251     0.09000
C1015       C  0.01614582  0.27089990  0.77375042     0.10100
S1016       S  0.00845917  0.24724313  0.79084133    -0.24600
H1017       H  0.98216366  0.25149021  0.79376834     0.20300
S1018       S  0.97055753  0.28688313  0.76507931    -0.30300
H1019       H  0.99691658  0.28305340  0.76257050     0.10700
C1020       C  0.02259864  0.27028227  0.76215789     0.03900
C1021       C  0.03501992  0.27485507  0.76130929    -0.12600
C1022       C  0.04126064  0.27981090  0.77188606    -0.08300
C1023       C  0.03500436  0.27962558  0.78365769     0.07300
C1024       C  0.02255239  0.27536273  0.78440829    -0.13400
S1025       S  0.01497700  0.26382324  0.74841410    -0.30300
H1026       H  0.03958698  0.27519723  0.75222460     0.11600
S1027       S  0.04224106  0.28493859  0.79808276    -0.27400
H1028       H  0.01769694  0.27577661  0.79337730     0.08800
H1029       H  0.96422093  0.28993821  0.77628359     0.27200
H1030       H  0.02564061  0.26399317  0.74055258     0.22000
H1031       H  0.05468411  0.28225939  0.79450801     0.27300
H1032       H  0.01753963  0.24726485  0.78120005     0.16200
C1033       C  0.94297291  0.25808626  0.74873922    -0.11100
C1034       C  0.94993374  0.24718757  0.74604870     0.15400
C1035       C  0.95752266  0.24175755  0.75556134     0.02300
C1036       C  0.95781841  0.24720874  0.76754202    -0.15500
C1037       C  0.95106510  0.25827203  0.77023207    -0.10300
C1038       C  0.94362885  0.26382336  0.76060307     0.09000
C1039       C  0.94964697  0.24205369  0.73308921     0.10100
S1040       S  0.96729043  0.22808204  0.75294204    -0.24600
H1041       H  0.96368438  0.24300275  0.77478305     0.20300
S1042       S  0.93548601  0.27862830  0.76231122    -0.30300
H1043       H  0.93731445  0.26239688  0.74138246     0.10700
C1044       C  0.94300752  0.23093766  0.73016475     0.03900
C1045       C  0.94414644  0.22572339  0.71808719    -0.12600
C1046       C  0.95174234  0.23144082  0.70888738    -0.08300
C1047       C  0.95783996  0.24290678  0.71161477     0.07300
C1048       C  0.95674490  0.24810936  0.72370606    -0.13400
S1049       S  0.93323854  0.22334267  0.74185663    -0.30300
H1050       H  0.93946068  0.21694717  0.71586689     0.11600
S1051       S  0.96692194  0.25092209  0.69968220    -0.27400
H1052       H  0.96168422  0.25673539  0.72600556     0.08800
H1053       H  0.94281190  0.28332214  0.77223271     0.27200
H1054       H  0.92882790  0.21356581  0.73408414     0.22000
H1055       H  0.97031005  0.26139511  0.70704527     0.27300
H1056       H  0.96994802  0.23060967  0.74021433     0.16200
C1057       C  0.32985544  0.11017080  0.75461423    -0.11100
C1058       C  0.32062026  0.10604343  0.76318114     0.15400
C1059       C  0.31478991  0.11510269  0.77103672     0.02300
C1060       C  0.31836587  0.12782289  0.77026573    -0.15500
C1061       C  0.32738116  0.13201231  0.76151011    -0.10300
C1062       C  0.33325267  0.12296734  0.75366795     0.09000
C1063       C  0.31808450  0.09220108  0.76457051     0.10100
S1064       S  0.30234591  0.11116346  0.78193009    -0.24600
H1065       H  0.31360237  0.13462302  0.77619996     0.20300
S1066       S  0.34549720  0.12703521  0.74263125    -0.30300
H1067       H  0.33466258  0.10331591  0.74878372     0.10700
C1068       C  0.31371373  0.08462252  0.75451456     0.03900
C1069       C  0.31195669  0.07153880  0.75637862    -0.12600
C1070       C  0.31416300  0.06588946  0.76817980    -0.08300
C1071       C  0.31784355  0.07367693  0.77835983     0.07300
C1072       C  0.32012595  0.08652386  0.77635451    -0.13400
S1073       S  0.31015575  0.09159065  0.73937081    -0.30300
H1074       H  0.30917338  0.06564339  0.74855182     0.11600
S1075       S  0.31940309  0.06793560  0.79431350    -0.27400
H1076       H  0.32336035  0.09222951  0.78416741     0.08800
H1077       H  0.35076785  0.13662208  0.75010379     0.27200
H1078       H  0.30618190  0.08042664  0.73344234     0.22000
H1079       H  0.30989338  0.05875748  0.79327983     0.27300
H1080       H  0.29735590  0.10120474  0.77476899     0.16200
C1081       C  0.27731547  0.04309148  0.74361199    -0.11100
C1082       C  0.26858327  0.05057026  0.75012406     0.15400
C1083       C  0.27247168  0.05689352  0.76117451     0.02300
C1084       C  0.28463780  0.05492352  0.76590726    -0.15500
C1085       C  0.29315554  0.04697443  0.75970444    -0.10300
C1086       C  0.28959793  0.04145248  0.74814608     0.09000
C1087       C  0.25520439  0.05044412  0.74601902     0.10100
S1088       S  0.26223357  0.06732372  0.76981143    -0.24600
H1089       H  0.28738094  0.05928925  0.77470395     0.20300
S1090       S  0.30031875  0.03218167  0.73884053    -0.30300
H1091       H  0.27445877  0.03828686  0.73507822     0.10700
C1092       C  0.25121555  0.05574831  0.73445896     0.03900
C1093       C  0.23845876  0.05491663  0.73094606    -0.12600
C1094       C  0.22965162  0.04887627  0.73876067    -0.08300
C1095       C  0.23363737  0.04396990  0.75048634     0.07300
C1096       C  0.24633251  0.04461791  0.75388880    -0.13400
S1097       S  0.26231960  0.06365674  0.72427195    -0.30300
H1098       H  0.23533977  0.05866499  0.72197111     0.11600
S1099       S  0.22290102  0.03703439  0.76163481    -0.27400
H1100       H  0.24933520  0.04059376  0.76280718     0.08800
H1101       H  0.31129655  0.03824141  0.74310114     0.27200
H1102       H  0.25365602  0.06700854  0.71479413     0.22000
H1103       H  0.21249462  0.04443108  0.75801811     0.27300
H1104       H  0.25499438  0.07116543  0.75937315     0.16200
C1105       C  0.20512099  0.09033686  0.72242393    -0.11100
C1106       C  0.20558804  0.09608338  0.73430198     0.15400
C1107       C  0.20909290  0.08868661  0.74488731     0.02300
C1108       C  0.21112068  0.07564511  0.74349440    -0.15500
C1109       C  0.20992013  0.06982706  0.73169982    -0.10300
C1110       C  0.20742351  0.07741603  0.72099470     0.09000
C1111       C  0.20142331  0.10949416  0.73536419     0.10100
S1112       S  0.21067567  0.09524138  0.76045740    -0.24600
H1113       H  0.21298457  0.06990913  0.75176629     0.20300
S1114       S  0.20653962  0.07104176  0.70527805    -0.30300
H1115       H  0.20256810  0.09590683  0.71422109     0.10700
C1116       C  0.20786252  0.11935134  0.72914543     0.03900
C1117       C  0.20318049  0.13173946  0.72981873    -0.12600
C1118       C  0.19222397  0.13460644  0.73667567    -0.08300
C1119       C  0.18570192  0.12470192  0.74277223     0.07300
C1120       C  0.19036938  0.11231249  0.74208146    -0.13400
S1121       S  0.22241634  0.11629529  0.72088522    -0.30300
H1122       H  0.20835516  0.13934046  0.72536066     0.11600
S1123       S  0.17117437  0.12718702  0.75117733    -0.27400
H1124       H  0.18522018  0.10474914  0.74664717     0.08800
H1125       H  0.21461004  0.06074511  0.70755798     0.27200
H1126       H  0.22405173  0.12853707  0.71597971     0.22000
H1127       H  0.16695635  0.13724081  0.74356281     0.27300
H1128       H  0.21402428  0.10745905  0.75647933     0.16200
C1129       C  0.27803097  0.98407226  0.79055801    -0.11100
C1130       C  0.28222451  0.98494575  0.77803920     0.15400
C1131       C  0.28265773  0.97375803  0.77076045     0.02300
C1132       C  0.28042884  0.96201137  0.77652172    -0.15500
C1133       C  0.27677719  0.96114566  0.78922327    -0.10300
C1134       C  0.27477362  0.97247020  0.79598150     0.09000
C1135       C  0.28782035  0.99716332  0.77361829     0.10100
S1136       S  0.28607619  0.97382174  0.75412114    -0.24600
H1137       H  0.28189240  0.95350921  0.77108979     0.20300
S1138       S  0.26803729  0.97281917  0.81157754    -0.30300
H1139       H  0.27756378  0.99247588  0.79632024     0.10700
C1140       C  0.28163792  0.00891862  0.77503163     0.03900
C1141       C  0.28837461  0.02021382  0.77308809    -0.12600
C1142       C  0.30101001  0.02009903  0.76911130    -0.08300
C1143       C  0.30669490  0.00829762  0.76646491     0.07300
C1144       C  0.30025097  0.99709586  0.76913909    -0.13400
S1145       S  0.26517888  0.00962799  0.77928591    -0.30300
H1146       H  0.28390604  0.02911643  0.77522809     0.11600
S1147       S  0.32220204  0.00675427  0.75969986    -0.27400
H1148       H  0.30513293  0.98819725  0.76794340     0.08800
H1149       H  0.26056880  0.96198031  0.80994551     0.27200
H1150       H  0.26391391  0.02283458  0.77859630     0.22000
H1151       H  0.32195317  0.01830653  0.75315084     0.27300
H1152       H  0.28170687  0.98617393  0.75190908     0.16200
C1153       C  0.21817205  0.98134650  0.71194419    -0.11100
C1154       C  0.22746391  0.98564097  0.72027687     0.15400
C1155       C  0.23803342  0.97788186  0.72271043     0.02300
C1156       C  0.23941159  0.96646789  0.71613581    -0.15500
C1157       C  0.23017129  0.96225356  0.70760382    -0.10300
C1158       C  0.21926474  0.96975650  0.70579648     0.09000
C1159       C  0.22561184  0.99835998  0.72588765     0.10100
S1160       S  0.25007911  0.98197315  0.73397745    -0.24600
H1161       H  0.24791694  0.96102351  0.71752587     0.20300
S1162       S  0.20626274  0.96519578  0.69583707    -0.30300
H1163       H  0.20993196  0.98714497  0.71018179     0.10700
C1164       C  0.23254176  0.00897520  0.72178688     0.03900
C1165       C  0.22841838  0.02117034  0.72502205    -0.12600
C1166       C  0.21745862  0.02297774  0.73220804    -0.08300
C1167       C  0.21121001  0.01225912  0.73718960     0.07300
C1168       C  0.21530381  0.00015233  0.73392024    -0.13400
S1169       S  0.24580965  0.00712726  0.71133087    -0.30300
H1170       H  0.23311599  0.02930121  0.72101220     0.11600
S1171       S  0.19751254  0.01326096  0.74720755    -0.27400
H1172       H  0.21001165  0.99202602  0.73717045     0.08800
H1173       H  0.20762710  0.95212805  0.69758691     0.27200
H1174       H  0.24969797  0.01981767  0.71152590     0.22000
H1175       H  0.19957910  0.02560640  0.75146719     0.27300
H1176       H  0.24257337  0.98995200  0.74139527     0.16200
C1177       C  0.23663403  0.93499629  0.73938179    -0.11100
C1178       C  0.24965126  0.93528945  0.74174764     0.15400
C1179       C  0.25802236  0.93571089  0.73135574     0.02300
C1180       C  0.25322228  0.93564116  0.71908092    -0.15500
C1181       C  0.24024761  0.93632227  0.71681018    -0.10300
C1182       C  0.23184475  0.93607045  0.72712759     0.09000
C1183       C  0.25424042  0.93523377  0.75504327     0.10100
S1184       S  0.27483636  0.93753266  0.73300237    -0.24600
H1185       H  0.25965905  0.93623449  0.71118468     0.20300
S1186       S  0.21500504  0.93765838  0.72554203    -0.30300
H1187       H  0.23011147  0.93441857  0.74720684     0.10700
C1188       C  0.25019191  0.94430714  0.76392949     0.03900
C1189       C  0.25538547  0.94423024  0.77609338    -0.12600
C1190       C  0.26523467  0.93600215  0.77934019    -0.08300
C1191       C  0.26947205  0.92717176  0.77033541     0.07300
C1192       C  0.26342899  0.92638904  0.75865558    -0.13400
S1193       S  0.23930391  0.95673445  0.75961369    -0.30300
H1194       H  0.25230039  0.95108522  0.78296683     0.11600
S1195       S  0.28348157  0.91779973  0.77237728    -0.27400
H1196       H  0.26661078  0.91940900  0.75193204     0.08800
H1197       H  0.21432014  0.93683587  0.71242427     0.27200
H1198       H  0.23908727  0.96287377  0.77133971     0.22000
H1199       H  0.28990806  0.92669695  0.77977786     0.27300
H1200       H  0.27420980  0.94538217  0.74364883     0.16200
C1201       C  0.25662525  0.54538080  0.73089536    -0.11100
C1202       C  0.26480054  0.55134838  0.73938815     0.15400
C1203       C  0.27617318  0.55658175  0.73486476     0.02300
C1204       C  0.27929979  0.55533317  0.72210442    -0.15500
C1205       C  0.27131953  0.54897274  0.71372195    -0.10300
C1206       C  0.25970801  0.54425597  0.71812290     0.09000
C1207       C  0.26181580  0.55067120  0.75302333     0.10100
S1208       S  0.28724247  0.56457329  0.74495564    -0.24600
H1209       H  0.28820062  0.55899762  0.71872022     0.20300
S1210       S  0.24853189  0.53664099  0.70789868    -0.30300
H1211       H  0.24789322  0.54133717  0.73430848     0.10700
C1212       C  0.25209629  0.55789836  0.75847037     0.03900
C1213       C  0.24892292  0.55597562  0.77120461    -0.12600
C1214       C  0.25515231  0.54681331  0.77850187    -0.08300
C1215       C  0.26532893  0.54006822  0.77313590     0.07300
C1216       C  0.26846109  0.54201708  0.76049043    -0.13400
S1217       S  0.24367693  0.56942269  0.74914265    -0.30300
H1218       H  0.24122037  0.56118353  0.77537459     0.11600
S1219       S  0.27487877  0.52894192  0.78182881    -0.27400
H1220       H  0.27604175  0.53657463  0.75634768     0.08800
H1221       H  0.25220771  0.54301510  0.69685807     0.27200
H1222       H  0.23543681  0.57339425  0.75871428     0.22000
H1223       H  0.27150126  0.53284297  0.79397444     0.27300
H1224       H  0.27838460  0.56870973  0.75387075     0.16200
C1225       C  0.30116697  0.48377010  0.71738345    -0.11100
C1226       C  0.28821488  0.48519294  0.71518144     0.15400
C1227       C  0.28058748  0.47420838  0.71512591     0.02300
C1228       C  0.28617393  0.46219380  0.71632945    -0.15500
C1229       C  0.29920689  0.46081597  0.71826596    -0.10300
C1230       C  0.30662699  0.47189378  0.71932235     0.09000
C1231       C  0.28342859  0.49804177  0.71158383     0.10100
S1232       S  0.26369408  0.47487745  0.71358128    -0.24600
H1233       H  0.28031033  0.45388035  0.71551758     0.20300
S1234       S  0.32318317  0.47166404  0.72320951    -0.30300
H1235       H  0.30718031  0.49202826  0.71742621     0.10700
C1236       C  0.28572419  0.50886033  0.71902778     0.03900
C1237       C  0.28340012  0.52098971  0.71402702    -0.12600
C1238       C  0.27822566  0.52262116  0.70192833    -0.08300
C1239       C  0.27464334  0.51168977  0.69512450     0.07300
C1240       C  0.27763539  0.49966493  0.69980155    -0.13400
S1241       S  0.29172555  0.50729794  0.73488604    -0.30300
H1242       H  0.28625760  0.52917514  0.71934897     0.11600
S1243       S  0.26624814  0.51235383  0.68034462    -0.27400
H1244       H  0.27564945  0.49148451  0.69403744     0.08800
H1245       H  0.32273292  0.46064174  0.73060385     0.27200
H1246       H  0.29023869  0.52003763  0.73829208     0.22000
H1247       H  0.26012426  0.52385451  0.68281185     0.27300
H1248       H  0.26233605  0.48695761  0.71886306     0.16200
C1249       C  0.31850094  0.39910286  0.74007920    -0.11100
C1250       C  0.31681430  0.38949217  0.73113266     0.15400
C1251       C  0.31116962  0.39262967  0.71943684     0.02300
C1252       C  0.30864289  0.40529945  0.71649950    -0.15500
C1253       C  0.31092330  0.41498118  0.72520180    -0.10300
C1254       C  0.31566920  0.41175973  0.73723337     0.09000
C1255       C  0.32107234  0.37637905  0.73423094     0.10100
S1256       S  0.30686602  0.38095104  0.70787510    -0.24600
H1257       H  0.30493510  0.40766444  0.70726742     0.20300
S1258       S  0.31892127  0.42340357  0.74911764    -0.30300
H1259       H  0.32252987  0.39679672  0.74918772     0.10700
C1260       C  0.33036601  0.37003722  0.72709586     0.03900
C1261       C  0.33306638  0.35724969  0.72963773    -0.12600
C1262       C  0.32707894  0.35073865  0.73951665    -0.08300
C1263       C  0.31837220  0.35740917  0.74712157     0.07300
C1264       C  0.31552903  0.37006310  0.74443935    -0.13400
S1265       S  0.33905838  0.37829363  0.71498402    -0.30300
H1266       H  0.33986779  0.35227673  0.72390308     0.11600
S1267       S  0.30972659  0.35004866  0.75972016    -0.27400
H1268       H  0.30851503  0.37488685  0.75006475     0.08800
H1269       H  0.32356684  0.43261070  0.74077014     0.27200
H1270       H  0.34719269  0.36829997  0.71185692     0.22000
H1271       H  0.30652162  0.33956813  0.75234969     0.27300
H1272       H  0.30480880  0.37106885  0.71650560     0.16200
C1273       C  0.23172198  0.48046768  0.76088025    -0.11100
C1274       C  0.23120729  0.48475262  0.77337324     0.15400
C1275       C  0.22463898  0.47744465  0.78241126     0.02300
C1276       C  0.21904187  0.46604354  0.77885364    -0.15500
C1277       C  0.21923280  0.46188153  0.76631158    -0.10300
C1278       C  0.22561234  0.46929665  0.75721726     0.09000
C1279       C  0.23694043  0.49713849  0.77670403     0.10100
S1280       S  0.22243643  0.48242932  0.79850903    -0.24600
H1281       H  0.21395093  0.46061904  0.78587137     0.20300
S1282       S  0.22538124  0.46570243  0.74068500    -0.30300
H1283       H  0.23650452  0.48612904  0.75383622     0.10700
C1284       C  0.24698470  0.49797587  0.78534429     0.03900
C1285       C  0.25025158  0.50976279  0.79037456    -0.12600
C1286       C  0.24398341  0.52086729  0.78668421    -0.08300
C1287       C  0.23459868  0.52012677  0.77722748     0.07300
C1288       C  0.23129271  0.50830197  0.77226881    -0.13400
S1289       S  0.25535253  0.48395894  0.79029670    -0.30300
H1290       H  0.25740907  0.51030161  0.79762661     0.11600
S1291       S  0.22571384  0.53360197  0.77177608    -0.27400
H1292       H  0.22364084  0.50771424  0.76553220     0.08800
H1293       H  0.21263023  0.46216811  0.74060026     0.27200
H1294       H  0.26435630  0.49010825  0.79781326     0.22000
H1295       H  0.22593619  0.54034999  0.78313464     0.27300
H1296       H  0.22165907  0.49541904  0.79586878     0.16200
C1297       C  0.24312923  0.43236401  0.73809992    -0.11100
C1298       C  0.25293139  0.43246692  0.74701085     0.15400
C1299       C  0.24983268  0.43387974  0.75990221     0.02300
C1300       C  0.23732155  0.43619769  0.76338045    -0.15500
C1301       C  0.22761929  0.43632903  0.75441273    -0.10300
C1302       C  0.23054793  0.43394819  0.74165455     0.09000
C1303       C  0.26620271  0.43252309  0.74237058     0.10100
S1304       S  0.26131599  0.43259625  0.77237133    -0.24600
H1305       H  0.23505647  0.43778130  0.77319939     0.20300
S1306       S  0.21892273  0.43349450  0.72924275    -0.30300
H1307       H  0.24532367  0.43149503  0.72817286     0.10700
C1308       C  0.27067730  0.42348546  0.73370140     0.03900
C1309       C  0.28248481  0.42520894  0.72803703    -0.12600
C1310       C  0.29039111  0.43528040  0.73140917    -0.08300
C1311       C  0.28644136  0.44349903  0.74110893     0.07300
C1312       C  0.27425028  0.44239154  0.74600906    -0.13400
S1313       S  0.26152325  0.40962992  0.72991518    -0.30300
H1314       H  0.28544228  0.41884661  0.72067326     0.11600
S1315       S  0.29648610  0.45534879  0.74792941    -0.27400
H1316       H  0.27101444  0.44932799  0.75274745     0.08800
H1317       H  0.20959803  0.44068586  0.73518809     0.27200
H1318       H  0.27084791  0.40347946  0.72279393     0.22000
H1319       H  0.30785969  0.44959416  0.74446475     0.27300
H1320       H  0.26943445  0.42440062  0.76585929     0.16200
C1321       C  0.20691141  0.39615638  0.76059778    -0.11100
C1322       C  0.19878608  0.39248235  0.75083248     0.15400
C1323       C  0.19358289  0.40187952  0.74287175     0.02300
C1324       C  0.19641391  0.41461552  0.74504985    -0.15500
C1325       C  0.20421884  0.41831984  0.75507083    -0.10300
C1326       C  0.20953898  0.40891037  0.76291520     0.09000
C1327       C  0.19532359  0.37890739  0.74986725     0.10100
S1328       S  0.18289850  0.39841914  0.73009861    -0.24600
H1329       H  0.19206183  0.42177956  0.73916337     0.20300
S1330       S  0.21901939  0.41246273  0.77654920    -0.30300
H1331       H  0.21084738  0.38901930  0.76680136     0.10700
C1332       C  0.19964389  0.37118576  0.73998710     0.03900
C1333       C  0.19617618  0.35837447  0.73969345    -0.12600
C1334       C  0.18872023  0.35295504  0.74925884    -0.08300
C1335       C  0.18438007  0.36081267  0.75911710     0.07300
C1336       C  0.18774433  0.37360004  0.75931812    -0.13400
S1337       S  0.21010751  0.37748045  0.72812818    -0.30300
H1338       H  0.19974234  0.35241751  0.73223675     0.11600
S1339       S  0.17427505  0.35523999  0.77154649    -0.27400
H1340       H  0.18436749  0.37951820  0.76691123     0.08800
H1341       H  0.21290747  0.42376970  0.77974403     0.27200
H1342       H  0.21223484  0.36606806  0.72173958     0.22000
H1343       H  0.16727504  0.34746980  0.76348984     0.27300
H1344       H  0.17800828  0.38713178  0.73503509     0.16200
C1345       C  0.88716450  0.26427249  0.81249439    -0.11100
C1346       C  0.89181636  0.25645566  0.80285978     0.15400
C1347       C  0.88401552  0.24672926  0.79821325     0.02300
C1348       C  0.87192792  0.24503855  0.80324317    -0.15500
C1349       C  0.86710245  0.25311859  0.81255302    -0.10300
C1350       C  0.87492657  0.26278553  0.81729552     0.09000
C1351       C  0.90496630  0.25837169  0.79824702     0.10100
S1352       S  0.88863821  0.23658725  0.78540819    -0.24600
H1353       H  0.86594141  0.23777697  0.79928777     0.20300
S1354       S  0.86995607  0.27335187  0.82960277    -0.30300
H1355       H  0.89314449  0.27160275  0.81632385     0.10700
C1356       C  0.90882899  0.26986062  0.79270618     0.03900
C1357       C  0.92160010  0.27174833  0.78981656    -0.12600
C1358       C  0.93059443  0.26218289  0.79164464    -0.08300
C1359       C  0.92660027  0.25048353  0.79670526     0.07300
C1360       C  0.91391651  0.24874864  0.80000351    -0.13400
S1361       S  0.89755140  0.28222740  0.78943282    -0.30300
H1362       H  0.92468876  0.28097350  0.78672678     0.11600
S1363       S  0.93737674  0.23782824  0.80040642    -0.27400
H1364       H  0.91106200  0.23993188  0.80434530     0.08800
H1365       H  0.86179753  0.26472022  0.83551590     0.27200
H1366       H  0.90592696  0.29046250  0.78326278     0.22000
H1367       H  0.94674413  0.24120435  0.79174609     0.27300
H1368       H  0.89608471  0.24560038  0.77913764     0.16200
C1369       C  0.62956179  0.23904238  0.68966154    -0.11100
C1370       C  0.62189205  0.24872307  0.68487457     0.15400
C1371       C  0.62737256  0.25787967  0.67682710     0.02300
C1372       C  0.64028410  0.25724925  0.67394770    -0.15500
C1373       C  0.64798970  0.24751321  0.67868430    -0.10300
C1374       C  0.64243985  0.23838122  0.68678510     0.09000
C1375       C  0.60832073  0.24914438  0.68863713     0.10100
S1376       S  0.61839290  0.27054837  0.66981558    -0.24600
H1377       H  0.64432290  0.26439266  0.66784111     0.20300
S1378       S  0.65136250  0.22617906  0.69460558    -0.30300
H1379       H  0.62552489  0.23209781  0.69599967     0.10700
C1380       C  0.59978259  0.23970880  0.68480023     0.03900
C1381       C  0.58693075  0.24094063  0.68768968    -0.12600
C1382       C  0.58227994  0.25141207  0.69432611    -0.08300
C1383       C  0.59088080  0.26059856  0.69862663     0.07300
C1384       C  0.60380320  0.25931662  0.69582813    -0.13400
S1385       S  0.60505005  0.22654702  0.67538481    -0.30300
H1386       H  0.58031557  0.23398311  0.68425368     0.11600
S1387       S  0.58537625  0.27451781  0.70666214    -0.27400
H1388       H  0.61038818  0.26649846  0.69882844     0.08800
H1389       H  0.66082364  0.23448408  0.69872284     0.27200
H1390       H  0.59330180  0.22052632  0.67430043     0.22000
H1391       H  0.59730043  0.27969262  0.70919969     0.27300
H1392       H  0.60702748  0.26382623  0.66884136     0.16200
C1393       C  0.62821763  0.22863481  0.81764366    -0.11100
C1394       C  0.62227994  0.23837094  0.81082440     0.15400
C1395       C  0.62949769  0.24901345  0.80726665     0.02300
C1396       C  0.64232661  0.24961313  0.81044454    -0.15500
C1397       C  0.64839652  0.23969394  0.81690333    -0.10300
C1398       C  0.64108507  0.22918823  0.82074171     0.09000
C1399       C  0.60844633  0.23751124  0.80823508     0.10100
S1400       S  0.62302761  0.26195089  0.79824120    -0.24600
H1401       H  0.64775309  0.25768971  0.80730487     0.20300
S1402       S  0.64746106  0.21640799  0.83001803    -0.30300
H1403       H  0.62271925  0.22059067  0.82073979     0.10700
C1404       C  0.60326832  0.22806216  0.80040790     0.03900
C1405       C  0.59011038  0.22735434  0.79871655    -0.12600
C1406       C  0.58196288  0.23582089  0.80478246    -0.08300
C1407       C  0.58721612  0.24553612  0.81223851     0.07300
C1408       C  0.60029582  0.24621939  0.81393567    -0.13400
S1409       S  0.61339585  0.21684543  0.79261330    -0.30300
H1410       H  0.58610376  0.21984481  0.79310736     0.11600
S1411       S  0.57770525  0.25730066  0.81997273    -0.27400
H1412       H  0.60416338  0.25354576  0.81989067     0.08800
H1413       H  0.65581013  0.22402081  0.83693880     0.27200
H1414       H  0.60376066  0.20940291  0.78739828     0.22000
H1415       H  0.56771141  0.25698748  0.81127508     0.27300
H1416       H  0.61420846  0.25471338  0.79152650     0.16200
C1417       C  0.74505160  0.23509449  0.80885761    -0.11100
C1418       C  0.75114789  0.24498788  0.81509886     0.15400
C1419       C  0.74384414  0.25448742  0.82086380     0.02300
C1420       C  0.73066345  0.25374119  0.82047034    -0.15500
C1421       C  0.72446726  0.24368359  0.81444121    -0.10300
C1422       C  0.73188672  0.23444857  0.80825584     0.09000
C1423       C  0.76511368  0.24542112  0.81488066     0.10100
S1424       S  0.75074663  0.26777272  0.82890483    -0.24600
H1425       H  0.72521884  0.26096033  0.82520032     0.20300
S1426       S  0.72527633  0.22200519  0.79880846    -0.30300
H1427       H  0.75063058  0.22796911  0.80413065     0.10700
C1428       C  0.77243923  0.23754074  0.82272640     0.03900
C1429       C  0.78564545  0.23829090  0.82222391    -0.12600
C1430       C  0.79169801  0.24674454  0.81398430    -0.08300
C1431       C  0.78427856  0.25427697  0.80579521     0.07300
C1432       C  0.77112031  0.25367332  0.80647423    -0.13400
S1433       S  0.76493779  0.22686626  0.83369309    -0.30300
H1434       H  0.79128005  0.23251447  0.82850502     0.11600
S1435       S  0.79099247  0.26438351  0.79386041    -0.27400
H1436       H  0.76549448  0.25952696  0.80023941     0.08800
H1437       H  0.71614870  0.22981811  0.79311732     0.27200
H1438       H  0.77604478  0.22138525  0.83845329     0.22000
H1439       H  0.80104093  0.25622267  0.79096556     0.27300
H1440       H  0.76189495  0.26167811  0.83267676     0.16200
C1441       C  0.69019326  0.25709832  0.76016022    -0.11100
C1442       C  0.68281184  0.24868050  0.75316340     0.15400
C1443       C  0.67584634  0.23927144  0.75951833     0.02300
C1444       C  0.67663846  0.23830144  0.77264643    -0.15500
C1445       C  0.68415131  0.24660412  0.77967687    -0.10300
C1446       C  0.69106602  0.25607228  0.77329444     0.09000
C1447       C  0.68367082  0.24903359  0.73924092     0.10100
S1448       S  0.66594710  0.22810332  0.75140247    -0.24600
H1449       H  0.67129407  0.23100923  0.77742899     0.20300
S1450       S  0.70196846  0.26640520  0.78119104    -0.30300
H1451       H  0.69577522  0.26414544  0.75528594     0.10700
C1452       C  0.67790735  0.25862179  0.73204516     0.03900
C1453       C  0.67894112  0.25839628  0.71885350    -0.12600
C1454       C  0.68567541  0.24877907  0.71270242    -0.08300
C1455       C  0.69178488  0.23939154  0.72003190     0.07300
C1456       C  0.69062383  0.23960325  0.73318725    -0.13400
S1457       S  0.66886441  0.27085800  0.73964585    -0.30300
H1458       H  0.67423083  0.26557251  0.71329078     0.11600
S1459       S  0.70167404  0.22749156  0.71289044    -0.27400
H1460       H  0.69524425  0.23245749  0.73886810     0.08800
H1461       H  0.70670822  0.25703624  0.78935317     0.27200
H1462       H  0.66647972  0.27806646  0.72874139     0.22000
H1463       H  0.70447437  0.22071350  0.72396718     0.27300
H1464       H  0.66303410  0.23595721  0.74109704     0.16200
C1465       C  0.88581881  0.22602677  0.67312456    -0.11100
C1466       C  0.89195346  0.23446878  0.68125676     0.15400
C1467       C  0.88536873  0.24528648  0.68539243     0.02300
C1468       C  0.87287780  0.24726975  0.68152414    -0.15500
C1469       C  0.86655306  0.23855464  0.67380255    -0.10300
C1470       C  0.87329211  0.22794108  0.66935189     0.09000
C1471       C  0.90537260  0.23200004  0.68467722     0.10100
S1472       S  0.89215007  0.25662520  0.69605885    -0.24600
H1473       H  0.86784030  0.25537421  0.68516260     0.20300
S1474       S  0.86660180  0.21667276  0.65857341    -0.30300
H1475       H  0.89089208  0.21789318  0.66959871     0.10700
C1476       C  0.90901806  0.22106962  0.69141861     0.03900
C1477       C  0.92188136  0.21846235  0.69325331    -0.12600
C1478       C  0.93122084  0.22663478  0.68866833    -0.08300
C1479       C  0.92754864  0.23784753  0.68236022     0.07300
C1480       C  0.91471094  0.24038633  0.68048530    -0.13400
S1481       S  0.89729518  0.21041210  0.69767256    -0.30300
H1482       H  0.92471760  0.20980932  0.69792135     0.11600
S1483       S  0.93856813  0.24915942  0.67592876    -0.27400
H1484       H  0.91197434  0.24879285  0.67531219     0.08800
H1485       H  0.85909019  0.22552910  0.65210370     0.27200
H1486       H  0.90573522  0.20174046  0.70315090     0.22000
H1487       H  0.94982564  0.24251005  0.67778277     0.27300
H1488       H  0.89990849  0.24800417  0.70252728     0.16200
C1489       C  0.77120548  0.25844796  0.67586255    -0.11100
C1490       C  0.76426946  0.24747238  0.67833470     0.15400
C1491       C  0.77074216  0.23596717  0.68009995     0.02300
C1492       C  0.78384633  0.23558484  0.67880970    -0.15500
C1493       C  0.79091787  0.24651268  0.67609330    -0.10300
C1494       C  0.78440383  0.25819947  0.67488660     0.09000
C1495       C  0.75029734  0.24805967  0.67764728     0.10100
S1496       S  0.76281710  0.22140858  0.68400028    -0.24600
H1497       H  0.78853864  0.22658016  0.68003612     0.20300
S1498       S  0.79242510  0.27290954  0.67165119    -0.30300
H1499       H  0.76616709  0.26720976  0.67432033     0.10700
C1500       C  0.74305322  0.25544864  0.68599616     0.03900
C1501       C  0.72987126  0.25575985  0.68467525    -0.12600
C1502       C  0.72379723  0.24878569  0.67522250    -0.08300
C1503       C  0.73113021  0.24169859  0.66670360     0.07300
C1504       C  0.74421482  0.24134986  0.66804856    -0.13400
S1505       S  0.75049560  0.26398171  0.69868043    -0.30300
H1506       H  0.72423259  0.26114095  0.69124416     0.11600
S1507       S  0.72443156  0.23334386  0.65357789    -0.27400
H1508       H  0.74975677  0.23593049  0.66141367     0.08800
H1509       H  0.78217264  0.28098895  0.67398220     0.27200
H1510       H  0.73957502  0.27007229  0.70306055     0.22000
H1511       H  0.71489890  0.24226648  0.65121100     0.27300
H1512       H  0.75273930  0.22702727  0.69049414     0.16200
C1513       C  0.83947039  0.23612197  0.73085378    -0.11100
C1514       C  0.83149123  0.24441359  0.73735316     0.15400
C1515       C  0.82352650  0.25257725  0.73042917     0.02300
C1516       C  0.82373492  0.25231080  0.71723856    -0.15500
C1517       C  0.83152816  0.24385887  0.71072352    -0.10300
C1518       C  0.83964008  0.23582146  0.71764844     0.09000
C1519       C  0.83204199  0.24478306  0.75131510     0.10100
S1520       S  0.81274719  0.26340325  0.73786839    -0.24600
H1521       H  0.81746928  0.25849306  0.71201154     0.20300
S1522       S  0.85084267  0.22546255  0.71019169    -0.30300
H1523       H  0.84577784  0.23001595  0.73611649     0.10700
C1524       C  0.82679914  0.23510028  0.75878165     0.03900
C1525       C  0.82685441  0.23625280  0.77196565    -0.12600
C1526       C  0.83213502  0.24686415  0.77787861    -0.08300
C1527       C  0.83801061  0.25620482  0.77032301     0.07300
C1528       C  0.83769317  0.25516771  0.75717844    -0.13400
S1529       S  0.81951315  0.22156578  0.75149916    -0.30300
H1530       H  0.82243946  0.22902370  0.77767956     0.11600
S1531       S  0.84655922  0.26936412  0.77681130    -0.27400
H1532       H  0.84199000  0.26247064  0.75144396     0.08800
H1533       H  0.85346986  0.23363012  0.70005698     0.27200
H1534       H  0.81651124  0.21513316  0.76271888     0.22000
H1535       H  0.85190691  0.26237074  0.78677337     0.27300
H1536       H  0.81041223  0.25595006  0.74860060     0.16200
C1537       C  0.26130357  0.61284248  0.67743311    -0.11100
C1538       C  0.26981333  0.60945092  0.68704996     0.15400
C1539       C  0.27702037  0.61906987  0.69278294     0.02300
C1540       C  0.27583634  0.63158487  0.68863064    -0.15500
C1541       C  0.26732503  0.63502699  0.67905487    -0.10300
C1542       C  0.25996852  0.62544971  0.67340725     0.09000
C1543       C  0.27198958  0.59578277  0.68995653     0.10100
S1544       S  0.28769329  0.61607761  0.70569424    -0.24600
H1545       H  0.28135378  0.63880875  0.69327205     0.20300
S1546       S  0.24921609  0.62855709  0.66061929    -0.30300
H1547       H  0.25592218  0.60554530  0.67275316     0.10700
C1548       C  0.26236122  0.58770186  0.69442178     0.03900
C1549       C  0.26481038  0.57469078  0.69600914    -0.12600
C1550       C  0.27677972  0.56963264  0.69348999    -0.08300
C1551       C  0.28660862  0.57794874  0.69003366     0.07300
C1552       C  0.28405418  0.59075123  0.68799628    -0.13400
S1553       S  0.24697585  0.59391890  0.69811469    -0.30300
H1554       H  0.25725876  0.56836910  0.69867548     0.11600
S1555       S  0.30268559  0.57279505  0.68811784    -0.27400
H1556       H  0.29158162  0.59687408  0.68480342     0.08800
H1557       H  0.25659372  0.63807936  0.65504313     0.27200
H1558       H  0.24204038  0.58271880  0.70327578     0.22000
H1559       H  0.30189612  0.56275224  0.69679484     0.27300
H1560       H  0.28097670  0.60579754  0.71072400     0.16200
C1561       C  0.25350974  0.86909295  0.80058158    -0.11100
C1562       C  0.26088225  0.87648573  0.80867000     0.15400
C1563       C  0.26564903  0.87096272  0.81988153     0.02300
C1564       C  0.26412913  0.85800005  0.82201787    -0.15500
C1565       C  0.25729836  0.85047588  0.81360776    -0.10300
C1566       C  0.25166238  0.85619489  0.80293485     0.09000
C1567       C  0.26404481  0.88965541  0.80488106     0.10100
S1568       S  0.27373102  0.87991672  0.83184536    -0.24600
H1569       H  0.26830145  0.85373617  0.83033490     0.20300
S1570       S  0.24281157  0.84736180  0.79150551    -0.30300
H1571       H  0.24965338  0.87326387  0.79207071     0.10700
C1572       C  0.27664267  0.89342675  0.80296918     0.03900
C1573       C  0.27938403  0.90622737  0.80111344    -0.12600
C1574       C  0.26979713  0.91533265  0.80032328    -0.08300
C1575       C  0.25710752  0.91141318  0.80124304     0.07300
C1576       C  0.25437927  0.89862157  0.80346276    -0.13400
S1577       S  0.28925820  0.88195491  0.80270286    -0.30300
H1578       H  0.28909898  0.90923654  0.80036155     0.11600
S1579       S  0.24401006  0.92223460  0.80043891    -0.27400
H1580       H  0.24466675  0.89572406  0.80463955     0.08800
H1581       H  0.25162343  0.83750247  0.79095611     0.27200
H1582       H  0.29901237  0.89042900  0.79973011     0.22000
H1583       H  0.25024411  0.93268895  0.80561708     0.27300
H1584       H  0.26776275  0.89148235  0.82921181     0.16200
C1585       C  0.24733906  0.61376490  0.80341212    -0.11100
C1586       C  0.25550386  0.60535697  0.80957065     0.15400
C1587       C  0.26463695  0.61030096  0.81794489     0.02300
C1588       C  0.26526481  0.62340586  0.82000024    -0.15500
C1589       C  0.25675532  0.63176231  0.81415231    -0.10300
C1590       C  0.24785823  0.62677105  0.80554653     0.09000
C1591       C  0.25400496  0.59157313  0.80704029     0.10100
S1592       S  0.27551306  0.60042900  0.82655498    -0.24600
H1593       H  0.27224414  0.62706797  0.82647898     0.20300
S1594       S  0.23732400  0.63648684  0.79637340    -0.30300
H1595       H  0.24050596  0.61013175  0.79675605     0.10700
C1596       C  0.24266561  0.58530136  0.80999226     0.03900
C1597       C  0.24130556  0.57247894  0.80707957    -0.12600
C1598       C  0.25119034  0.56541788  0.80178514    -0.08300
C1599       C  0.26268207  0.57164445  0.79914221     0.07300
C1600       C  0.26382485  0.58467750  0.80142338    -0.13400
S1601       S  0.23012708  0.59339611  0.81820127    -0.30300
H1602       H  0.23255643  0.56775922  0.80935912     0.11600
S1603       S  0.27653743  0.56339517  0.79399529    -0.27400
H1604       H  0.27260614  0.58939375  0.79922914     0.08800
H1605       H  0.24669465  0.64524158  0.79306085     0.27200
H1606       H  0.22204689  0.58296891  0.81954787     0.22000
H1607       H  0.27468863  0.55314808  0.80222796     0.27300
H1608       H  0.26739116  0.59002610  0.82775586     0.16200
C1609       C  0.26803777  0.66442206  0.75910892    -0.11100
C1610       C  0.25903771  0.67198215  0.75300636     0.15400
C1611       C  0.25000472  0.67846507  0.76026825     0.02300
C1612       C  0.25020877  0.67729475  0.77341923    -0.15500
C1613       C  0.25931865  0.66987532  0.77961572    -0.10300
C1614       C  0.26819075  0.66316775  0.77226602     0.09000
C1615       C  0.25918018  0.67263027  0.73905600     0.10100
S1616       S  0.23789723  0.68826550  0.75337326    -0.24600
H1617       H  0.24331100  0.68245852  0.77888313     0.20300
S1618       S  0.27946727  0.65232702  0.77896856    -0.30300
H1619       H  0.27485104  0.65925660  0.75353784     0.10700
C1620       C  0.26688881  0.68134194  0.73264349     0.03900
C1621       C  0.26724475  0.68127040  0.71942553    -0.12600
C1622       C  0.26004026  0.67264854  0.71244286    -0.08300
C1623       C  0.25230222  0.66391297  0.71893914     0.07300
C1624       C  0.25186133  0.66409566  0.73214172    -0.13400
S1625       S  0.27614555  0.69264831  0.74133505    -0.30300
H1626       H  0.27313094  0.68799529  0.71448037     0.11600
S1627       S  0.24341606  0.65180737  0.71102457    -0.27400
H1628       H  0.24604155  0.65730059  0.73709003     0.08800
H1629       H  0.27114485  0.64741285  0.78805470     0.27200
H1630       H  0.28177490  0.69848749  0.73083418     0.22000
H1631       H  0.25283676  0.64908515  0.70212836     0.27300
H1632       H  0.24462421  0.69190137  0.74257387     0.16200
C1633       C  0.24980498  0.75395206  0.81292259    -0.11100
C1634       C  0.26027798  0.74802989  0.81842607     0.15400
C1635       C  0.27015225  0.75547464  0.82326373     0.02300
C1636       C  0.26927247  0.76863524  0.82260542    -0.15500
C1637       C  0.25866439  0.77462666  0.81733902    -0.10300
C1638       C  0.24893661  0.76710334  0.81219903     0.09000
C1639       C  0.26066915  0.73407758  0.81866374     0.10100
S1640       S  0.28400481  0.74879477  0.83055382    -0.24600
H1641       H  0.27684346  0.77424635  0.82651881     0.20300
S1642       S  0.23553796  0.77357513  0.80396651    -0.30300
H1643       H  0.24233904  0.74824126  0.80894259     0.10700
C1644       C  0.25218144  0.72711162  0.82613150     0.03900
C1645       C  0.25226591  0.71391689  0.82551357    -0.12600
C1646       C  0.26073204  0.70750020  0.81765701    -0.08300
C1647       C  0.26935606  0.71451366  0.81028582     0.07300
C1648       C  0.26927660  0.72771246  0.81093193    -0.13400
S1649       S  0.24144315  0.73502201  0.83668932    -0.30300
H1650       H  0.24578333  0.70853544  0.83128202     0.11600
S1651       S  0.28017502  0.70728157  0.79939284    -0.27400
H1652       H  0.27573304  0.73308852  0.80511305     0.08800
H1653       H  0.24255958  0.78277762  0.79745388     0.27200
H1654       H  0.23582903  0.72409277  0.84171895     0.22000
H1655       H  0.27172615  0.69791488  0.79533270     0.27300
H1656       H  0.27809986  0.73794537  0.83539320     0.16200
C1657       C  0.24284991  0.87434723  0.67455605    -0.11100
C1658       C  0.24978411  0.87943055  0.68460997     0.15400
C1659       C  0.25867700  0.87170309  0.69086844     0.02300
C1660       C  0.26045542  0.85919491  0.68693487    -0.15500
C1661       C  0.25325006  0.85397543  0.67713036    -0.10300
C1662       C  0.24452172  0.86178954  0.67071939     0.09000
C1663       C  0.24744582  0.89278692  0.68827548     0.10100
S1664       S  0.26768728  0.87705286  0.70423818    -0.24600
H1665       H  0.26705569  0.85327346  0.69204727     0.20300
S1666       S  0.23546105  0.85639861  0.65740777    -0.30300
H1667       H  0.23610988  0.88025129  0.66961107     0.10700
C1668       C  0.25597026  0.90253795  0.68523174     0.03900
C1669       C  0.25281501  0.91513600  0.68798173    -0.12600
C1670       C  0.24126973  0.91823633  0.69364304    -0.08300
C1671       C  0.23285523  0.90840778  0.69683660     0.07300
C1672       C  0.23609144  0.89583998  0.69428752    -0.13400
S1673       S  0.27050177  0.89902544  0.67714284    -0.30300
H1674       H  0.25912456  0.92268488  0.68524747     0.11600
S1675       S  0.21747178  0.91129927  0.70329282    -0.27400
H1676       H  0.22947278  0.88839158  0.69655635     0.08800
H1677       H  0.24457272  0.84782350  0.65302681     0.27200
H1678       H  0.27507947  0.91147245  0.67668338     0.22000
H1679       H  0.21478602  0.92163694  0.69538594     0.27300
H1680       H  0.25869363  0.88565655  0.70875316     0.16200
C1681       C  0.24547992  0.80677870  0.73167822    -0.11100
C1682       C  0.25402330  0.81413073  0.73855161     0.15400
C1683       C  0.26270914  0.82183696  0.73203017     0.02300
C1684       C  0.26277347  0.82189355  0.71884756    -0.15500
C1685       C  0.25418028  0.81460082  0.71193943    -0.10300
C1686       C  0.24551338  0.80685318  0.71849230     0.09000
C1687       C  0.25418161  0.81298729  0.75246635     0.10100
S1688       S  0.27384918  0.83190500  0.73997200    -0.24600
H1689       H  0.26943344  0.82789526  0.71393835     0.20300
S1690       S  0.23481060  0.79626117  0.71065208    -0.30300
H1691       H  0.23896735  0.80066215  0.73664389     0.10700
C1692       C  0.24416110  0.81745956  0.75991073     0.03900
C1693       C  0.24495392  0.81651838  0.77307837    -0.12600
C1694       C  0.25558377  0.81121772  0.77900834    -0.08300
C1695       C  0.26531330  0.80616238  0.77142113     0.07300
C1696       C  0.26457614  0.80726517  0.75830150    -0.13400
S1697       S  0.23064189  0.82492125  0.75268641    -0.30300
H1698       H  0.23741316  0.82029588  0.77879201     0.11600
S1699       S  0.27863318  0.79770534  0.77777294    -0.27400
H1700       H  0.27212524  0.80351517  0.75255130     0.08800
H1701       H  0.24350988  0.79248776  0.70140240     0.27200
H1702       H  0.22397149  0.82726798  0.76388162     0.22000
H1703       H  0.27161928  0.79139452  0.78711514     0.27300
H1704       H  0.26631479  0.83427135  0.75059296     0.16200
C1705       C  0.26760946  0.73121558  0.66617052    -0.11100
C1706       C  0.25885830  0.73727793  0.67397342     0.15400
C1707       C  0.25042912  0.72990579  0.68119789     0.02300
C1708       C  0.25099495  0.71669372  0.68053145    -0.15500
C1709       C  0.25998517  0.71061704  0.67298483    -0.10300
C1710       C  0.26818573  0.71802787  0.66550617     0.09000
C1711       C  0.25838700  0.75128191  0.67389756     0.10100
S1712       S  0.23893590  0.73678407  0.69162674    -0.24600
H1713       H  0.24467383  0.71111369  0.68630735     0.20300
S1714       S  0.27919173  0.71123853  0.65450613    -0.30300
H1715       H  0.27390173  0.73682460  0.66038851     0.10700
C1716       C  0.26764986  0.75856842  0.67999632     0.03900
C1717       C  0.26687186  0.77180867  0.67958525    -0.12600
C1718       C  0.25705139  0.77796793  0.67310939    -0.08300
C1719       C  0.24801808  0.77055922  0.66666025     0.07300
C1720       C  0.24866985  0.75736621  0.66731338    -0.13400
S1721       S  0.28023270  0.75098057  0.68863645    -0.30300
H1722       H  0.27381853  0.77738969  0.68453137     0.11600
S1723       S  0.23586117  0.77727444  0.65683832    -0.27400
H1724       H  0.24170243  0.75176638  0.66239157     0.08800
H1725       H  0.27135430  0.70113161  0.65104647     0.27200
H1726       H  0.28650948  0.76207653  0.69225903     0.22000
H1727       H  0.24365132  0.78670114  0.65166016     0.27300
H1728       H  0.24597164  0.74758845  0.69465436     0.16200
C1729       C  0.25315113  0.76197340  0.44277736    -0.11100
C1730       C  0.25476053  0.74987465  0.43763209     0.15400
C1731       C  0.24401574  0.74350385  0.43294965     0.02300
C1732       C  0.23204861  0.74888370  0.43436395    -0.15500
C1733       C  0.23042461  0.76092531  0.43959597    -0.10300
C1734       C  0.24128272  0.76776521  0.44326450     0.09000
C1735       C  0.26749324  0.74380628  0.43803967     0.10100
S1736       S  0.24487997  0.72856653  0.42488818    -0.24600
H1737       H  0.22387545  0.74357006  0.43138282     0.20300
S1738       S  0.24089758  0.78406449  0.44801092    -0.30300
H1739       H  0.26124372  0.76702985  0.44638025     0.10700
C1740       C  0.27837721  0.74965720  0.43302545     0.03900
C1741       C  0.29014149  0.74365235  0.43422629    -0.12600
C1742       C  0.29127514  0.73161367  0.43971195    -0.08300
C1743       C  0.28021668  0.72540690  0.44383355     0.07300
C1744       C  0.26868841  0.73180154  0.44357435    -0.13400
S1745       S  0.27735806  0.76451845  0.42467185    -0.30300
H1746       H  0.29856034  0.74839195  0.43098733     0.11600
S1747       S  0.27978189  0.70903916  0.44850962    -0.27400
H1748       H  0.26042970  0.72714698  0.44736099     0.08800
H1749       H  0.22969685  0.78701795  0.44166262     0.27200
H1750       H  0.29010597  0.76526315  0.42115278     0.22000
H1751       H  0.29112756  0.70551844  0.44270642     0.27300
H1752       H  0.25686646  0.73063177  0.41964366     0.16200
C1753       C  0.27829364  0.71169321  0.50709992    -0.11100
C1754       C  0.29083841  0.71335650  0.50326521     0.15400
C1755       C  0.30063471  0.71064140  0.51187247     0.02300
C1756       C  0.29778561  0.70522535  0.52355050    -0.15500
C1757       C  0.28531002  0.70274839  0.52710674    -0.10300
C1758       C  0.27542604  0.70638174  0.51891651     0.09000
C1759       C  0.29366433  0.71562792  0.48973883     0.10100
S1760       S  0.31703071  0.71303998  0.50813212    -0.24600
H1761       H  0.30541748  0.70261250  0.52983370     0.20300
S1762       S  0.25909239  0.70362230  0.52254958    -0.30300
H1763       H  0.27073639  0.71373759  0.50053209     0.10700
C1764       C  0.29782547  0.70559068  0.48213422     0.03900
C1765       C  0.30228914  0.70809196  0.46998597    -0.12600
C1766       C  0.30238439  0.72038726  0.46499460    -0.08300
C1767       C  0.29769542  0.73041667  0.47242820     0.07300
C1768       C  0.29325068  0.72789451  0.48467851    -0.13400
S1769       S  0.29773452  0.68955506  0.48802270    -0.30300
H1770       H  0.30591008  0.70041745  0.46432696     0.11600
S1771       S  0.29789535  0.74665950  0.46730318    -0.27400
H1772       H  0.29006990  0.73562172  0.49053194     0.08800
H1773       H  0.26105615  0.69205727  0.52877543     0.27200
H1774       H  0.30106586  0.68369396  0.47662952     0.22000
H1775       H  0.30828465  0.74562919  0.45918846     0.27300
H1776       H  0.31510516  0.72309772  0.49967254     0.16200
C1777       C  0.26607843  0.67624802  0.58878360    -0.11100
C1778       C  0.27011974  0.68540861  0.59733288     0.15400
C1779       C  0.27581550  0.69655391  0.59269204     0.02300
C1780       C  0.27792369  0.69796276  0.57968043    -0.15500
C1781       C  0.27426068  0.68855267  0.57113734    -0.10300
C1782       C  0.26792199  0.67772158  0.57582486     0.09000
C1783       C  0.26896443  0.68251544  0.61099734     0.10100
S1784       S  0.28094878  0.70908924  0.60291257    -0.24600
H1785       H  0.28285361  0.70624325  0.57627320     0.20300
S1786       S  0.26200339  0.66525716  0.56588423    -0.30300
H1787       H  0.26160128  0.66773807  0.59228242     0.10700
C1788       C  0.25728009  0.68304151  0.61722854     0.03900
C1789       C  0.25648849  0.67947721  0.62998120    -0.12600
C1790       C  0.26713125  0.67518484  0.63671069    -0.08300
C1791       C  0.27876562  0.67426154  0.63017969     0.07300
C1792       C  0.27956517  0.67812093  0.61754741    -0.13400
S1793       S  0.24344620  0.68861810  0.60899488    -0.30300
H1794       H  0.24755873  0.68036118  0.63480191     0.11600
S1795       S  0.29285667  0.66776654  0.63711700    -0.27400
H1796       H  0.28848218  0.67735239  0.61264589     0.08800
H1797       H  0.26002218  0.67275612  0.55512755     0.27200
H1798       H  0.23488956  0.68678618  0.61894217     0.22000
H1799       H  0.28652117  0.65786912  0.64331389     0.27300
H1800       H  0.27217110  0.70679927  0.61255754     0.16200
C1801       C  0.22246416  0.78428544  0.48355997    -0.11100
C1802       C  0.22824594  0.77414301  0.48978781     0.15400
C1803       C  0.22980092  0.76257294  0.48336307     0.02300
C1804       C  0.22546710  0.76146532  0.47089297    -0.15500
C1805       C  0.21922678  0.77152222  0.46487552    -0.10300
C1806       C  0.21788547  0.78313033  0.47130851     0.09000
C1807       C  0.23166984  0.77608740  0.50318979     0.10100
S1808       S  0.23655190  0.74872882  0.49067661    -0.24600
H1809       H  0.22630879  0.75247881  0.46612466     0.20300
S1810       S  0.21019388  0.79687701  0.46468382    -0.30300
H1811       H  0.22125588  0.79317679  0.48844409     0.10700
C1812       C  0.24424706  0.77772838  0.50716042     0.03900
C1813       C  0.24667999  0.78199618  0.51946904    -0.12600
C1814       C  0.23675501  0.78486163  0.52770187    -0.08300
C1815       C  0.22422964  0.78253787  0.52390602     0.07300
C1816       C  0.22184624  0.77816556  0.51175218    -0.13400
S1817       S  0.25708246  0.77552460  0.49624692    -0.30300
H1818       H  0.25625060  0.78392910  0.52240978     0.11600
S1819       S  0.21080001  0.78567813  0.53384097    -0.27400
H1820       H  0.21217570  0.77693239  0.50871695     0.08800
H1821       H  0.21170242  0.79384710  0.45192450     0.27200
H1822       H  0.26685480  0.77774099  0.50491611     0.22000
H1823       H  0.21709954  0.78455726  0.54542686     0.27300
H1824       H  0.23371774  0.75190469  0.50319808     0.16200
C1825       C  0.26518489  0.75992792  0.55825744    -0.11100
C1826       C  0.25794162  0.74984984  0.55360979     0.15400
C1827       C  0.24580580  0.75254455  0.54872466     0.02300
C1828       C  0.24130839  0.76496039  0.54877103    -0.15500
C1829       C  0.24901980  0.77513086  0.55227039    -0.10300
C1830       C  0.26125817  0.77248719  0.55683883     0.09000
C1831       C  0.26346411  0.73683624  0.55349809     0.10100
S1832       S  0.23591552  0.74089023  0.54131213    -0.24600
H1833       H  0.23189642  0.76677769  0.54531953     0.20300
S1834       S  0.27289636  0.78451046  0.55958007    -0.30300
H1835       H  0.27441406  0.75806468  0.56220922     0.10700
C1836       C  0.27543823  0.73438381  0.54818710     0.03900
C1837       C  0.28013244  0.72203048  0.54814745    -0.12600
C1838       C  0.27269737  0.71171158  0.55183305    -0.08300
C1839       C  0.26056356  0.71411472  0.55679756     0.07300
C1840       C  0.25645865  0.72661606  0.55827583    -0.13400
S1841       S  0.28442553  0.74661196  0.54035130    -0.30300
H1842       H  0.28952147  0.72029291  0.54464304     0.11600
S1843       S  0.24935106  0.70186303  0.56027869    -0.27400
H1844       H  0.24731368  0.72833053  0.56244891     0.08800
H1845       H  0.26865103  0.79260658  0.54993727     0.27200
H1846       H  0.29442435  0.73896048  0.53621280     0.22000
H1847       H  0.25338647  0.69381667  0.55061769     0.27300
H1848       H  0.24587320  0.73437174  0.53549428     0.16200
C1849       C  0.24491583  0.79356861  0.59371898    -0.11100
C1850       C  0.25323929  0.80326280  0.59715356     0.15400
C1851       C  0.25954106  0.81012781  0.58766419     0.02300
C1852       C  0.25694696  0.80756918  0.57502537    -0.15500
C1853       C  0.24826950  0.79821596  0.57151276    -0.10300
C1854       C  0.24220976  0.79109977  0.58101812     0.09000
C1855       C  0.25418252  0.80685574  0.61058633     0.10100
S1856       S  0.27023649  0.82292039  0.59098707    -0.24600
H1857       H  0.26147792  0.81322014  0.56780085     0.20300
S1858       S  0.23012590  0.77965464  0.57769548    -0.30300
H1859       H  0.23994617  0.78839409  0.60100250     0.10700
C1860       C  0.24582947  0.81570261  0.61590117     0.03900
C1861       C  0.24690303  0.81876607  0.62872105    -0.12600
C1862       C  0.25632970  0.81334059  0.63630687    -0.08300
C1863       C  0.26483361  0.80463966  0.63081005     0.07300
C1864       C  0.26354546  0.80136557  0.61810867    -0.13400
S1865       S  0.23364461  0.82288764  0.60638575    -0.30300
H1866       H  0.24028701  0.82530056  0.63291039     0.11600
S1867       S  0.27687285  0.79663377  0.63972159    -0.27400
H1868       H  0.26993125  0.79452907  0.61401941     0.08800
H1869       H  0.22479529  0.78629944  0.56752552     0.27200
H1870       H  0.22867784  0.83071316  0.61584033     0.22000
H1871       H  0.28340118  0.80788042  0.64231912     0.27300
H1872       H  0.27452414  0.81843116  0.60268205     0.16200
C1873       C  0.31592375  0.74386576  0.37283026    -0.11100
C1874       C  0.32096265  0.73373690  0.37970465     0.15400
C1875       C  0.32875087  0.72492198  0.37344708     0.02300
C1876       C  0.33118962  0.72637414  0.36050541    -0.15500
C1877       C  0.32623243  0.73659225  0.35359764    -0.10300
C1878       C  0.31830968  0.74530139  0.35991090     0.09000
C1879       C  0.31793884  0.73269070  0.39336829     0.10100
S1880       S  0.33582207  0.71160090  0.38139537    -0.24600
H1881       H  0.33714707  0.71953681  0.35582118     0.20300
S1882       S  0.31019125  0.75793669  0.35190077    -0.30300
H1883       H  0.30983481  0.75057396  0.37753521     0.10700
C1884       C  0.32468605  0.73969687  0.40237022     0.03900
C1885       C  0.32215693  0.73794738  0.41523846    -0.12600
C1886       C  0.31301131  0.72930376  0.41940393    -0.08300
C1887       C  0.30592388  0.72261161  0.41036166     0.07300
C1888       C  0.30842764  0.72441337  0.39742882    -0.13400
S1889       S  0.33709512  0.75027780  0.39747428    -0.30300
H1890       H  0.32773097  0.74292213  0.42217343     0.11600
S1891       S  0.29447438  0.71101152  0.41520872    -0.27400
H1892       H  0.30327492  0.71907108  0.39044634     0.08800
H1893       H  0.30644680  0.75038835  0.34169238     0.27200
H1894       H  0.34105298  0.75376788  0.40962224     0.22000
H1895       H  0.29007676  0.70801884  0.40307784     0.27300
H1896       H  0.33688458  0.71724614  0.39330241     0.16200
C1897       C  0.20380801  0.74816632  0.37325061    -0.11100
C1898       C  0.19895753  0.75802093  0.38053043     0.15400
C1899       C  0.19105130  0.76712508  0.37477412     0.02300
C1900       C  0.18828617  0.76621249  0.36187402    -0.15500
C1901       C  0.19304705  0.75626123  0.35458613    -0.10300
C1902       C  0.20108865  0.74727082  0.36038974     0.09000
C1903       C  0.20252931  0.75864692  0.39402662     0.10100
S1904       S  0.18419955  0.78010568  0.38333452    -0.24600
H1905       H  0.18224018  0.77323532  0.35752690     0.20300
S1906       S  0.20900724  0.73502126  0.35173663    -0.30300
H1907       H  0.21004276  0.74129292  0.37757592     0.10700
C1908       C  0.19698571  0.75054899  0.40297986     0.03900
C1909       C  0.19983242  0.75208595  0.41578471    -0.12600
C1910       C  0.20812551  0.76155897  0.41987411    -0.08300
C1911       C  0.21416713  0.76924467  0.41082559     0.07300
C1912       C  0.21133868  0.76766816  0.39797751    -0.13400
S1913       S  0.18553812  0.73890928  0.39819227    -0.30300
H1914       H  0.19504956  0.74633961  0.42274953     0.11600
S1915       S  0.22453566  0.78182454  0.41558110    -0.27400
H1916       H  0.21561183  0.77377677  0.39099066     0.08800
H1917       H  0.21285129  0.74322770  0.34205508     0.27200
H1918       H  0.18398063  0.73324263  0.41009661     0.22000
H1919       H  0.22786852  0.78589095  0.40340300     0.27300
H1920       H  0.18359823  0.77400747  0.39509899     0.16200
C1921       C  0.24472210  0.73652531  0.31109348    -0.11100
C1922       C  0.25239803  0.74548429  0.31701011     0.15400
C1923       C  0.24680895  0.75613789  0.32266276     0.02300
C1924       C  0.23372773  0.75767933  0.32214781    -0.15500
C1925       C  0.22597495  0.74871492  0.31625808    -0.10300
C1926       C  0.23163368  0.73807075  0.31053546     0.09000
C1927       C  0.26623504  0.74389537  0.31640935     0.10100
S1928       S  0.25584424  0.76805235  0.33072352    -0.24600
H1929       H  0.22954681  0.76584520  0.32662928     0.20300
S1930       S  0.22284787  0.72654362  0.30170786    -0.30300
H1931       H  0.24901505  0.72845309  0.30654509     0.10700
C1932       C  0.27254568  0.73484328  0.32385927     0.03900
C1933       C  0.28569905  0.73378503  0.32304294    -0.12600
C1934       C  0.29265475  0.74164781  0.31496253    -0.08300
C1935       C  0.28623899  0.75047629  0.30726828     0.07300
C1936       C  0.27314488  0.75159417  0.30817298    -0.13400
S1937       S  0.26389153  0.72501523  0.33475738    -0.30300
H1938       H  0.29063440  0.72704735  0.32895163     0.11600
S1939       S  0.29415125  0.76017905  0.29575223    -0.27400
H1940       H  0.26826223  0.75841475  0.30229867     0.08800
H1941       H  0.21480333  0.73543782  0.29597194     0.27200
H1942       H  0.27437952  0.71877447  0.33997623     0.22000
H1943       H  0.30309295  0.75096123  0.29246960     0.27300
H1944       H  0.26556994  0.76000122  0.33480225     0.16200
C1945       C  0.33747564  0.73398149  0.25736545    -0.11100
C1946       C  0.33087030  0.74379850  0.25143355     0.15400
C1947       C  0.32457905  0.75286771  0.25886365     0.02300
C1948       C  0.32523792  0.75201990  0.27202098    -0.15500
C1949       C  0.33170948  0.74208037  0.27798808    -0.10300
C1950       C  0.33809578  0.73310168  0.27050100     0.09000
C1951       C  0.33086557  0.74428001  0.23749653     0.10100
S1952       S  0.31535060  0.76555918  0.25219219    -0.24600
H1953       H  0.32030855  0.75896358  0.27764064     0.20300
S1954       S  0.34773601  0.72069614  0.27707193    -0.30300
H1955       H  0.34241913  0.72708747  0.25168859     0.10700
C1956       C  0.33776622  0.75345437  0.23078214     0.03900
C1957       C  0.33744912  0.75346007  0.21756067    -0.12600
C1958       C  0.33052288  0.74435875  0.21091249    -0.08300
C1959       C  0.32362273  0.73518447  0.21772128     0.07300
C1960       C  0.32399147  0.73516369  0.23089132    -0.13400
S1961       S  0.34732609  0.76484859  0.23903229    -0.30300
H1962       H  0.34281476  0.76042426  0.21235644     0.11600
S1963       S  0.31364104  0.72369957  0.21022458    -0.27400
H1964       H  0.31865797  0.72813587  0.23606535     0.08800
H1965       H  0.35264069  0.72812382  0.28688287     0.27200
H1966       H  0.35185931  0.77119869  0.22829488     0.22000
H1967       H  0.30915929  0.73216698  0.20103335     0.27300
H1968       H  0.31200402  0.75933961  0.24100994     0.16200
C1969       C  0.19584062  0.73718656  0.23454875    -0.11100
C1970       C  0.18709492  0.74582232  0.23938350     0.15400
C1971       C  0.17879160  0.75217883  0.23113097     0.02300
C1972       C  0.17939105  0.74966542  0.21823344    -0.15500
C1973       C  0.18813235  0.74101450  0.21335461    -0.10300
C1974       C  0.19654427  0.73480849  0.22162329     0.09000
C1975       C  0.18689275  0.74784783  0.25309048     0.10100
S1976       S  0.16706345  0.76337792  0.23632810    -0.24600
H1977       H  0.17290410  0.75446272  0.21193373     0.20300
S1978       S  0.20872999  0.72426398  0.21625543    -0.30300
H1979       H  0.20227669  0.73239150  0.24089955     0.10700
C1980       C  0.17849971  0.74118223  0.26089158     0.03900
C1981       C  0.17905627  0.74292597  0.27394800    -0.12600
C1982       C  0.18779388  0.75126924  0.27933890    -0.08300
C1983       C  0.19619081  0.75795832  0.27142666     0.07300
C1984       C  0.19558609  0.75622790  0.25838975    -0.13400
S1985       S  0.16719967  0.73036913  0.25420636    -0.30300
H1986       H  0.17264180  0.73779029  0.27999682     0.11600
S1987       S  0.20834198  0.76822018  0.27735806    -0.27400
H1988       H  0.20211075  0.76124159  0.25232842     0.08800
H1989       H  0.21163017  0.73127419  0.20535185     0.27200
H1990       H  0.16133651  0.72696731  0.26560400     0.22000
H1991       H  0.21158432  0.76035530  0.28757353     0.27300
H1992       H  0.17214352  0.76608261  0.24822202     0.16200
C1993       C  0.24654382  0.73051061  0.16913660    -0.11100
C1994       C  0.25252614  0.74033413  0.17560049     0.15400
C1995       C  0.24512143  0.74955905  0.18169316     0.02300
C1996       C  0.23194472  0.74879362  0.18112744    -0.15500
C1997       C  0.22593479  0.73885682  0.17479455    -0.10300
C1998       C  0.23340243  0.72973119  0.16855929     0.09000
C1999       C  0.26646492  0.74108204  0.17509956     0.10100
S2000       S  0.25192156  0.76238833  0.19049454    -0.24600
H2001       H  0.22634497  0.75580435  0.18599256     0.20300
S2002       S  0.22679584  0.71724422  0.15914092    -0.30300
H2003       H  0.25218472  0.72355709  0.16423162     0.10700
C2004       C  0.27414178  0.73259884  0.18190778     0.03900
C2005       C  0.28729809  0.73336183  0.18075008    -0.12600
C2006       C  0.29296677  0.74255839  0.17304576    -0.08300
C2007       C  0.28519104  0.75083117  0.16599692     0.07300
C2008       C  0.27208027  0.75009894  0.16721354    -0.13400
S2009       S  0.26718036  0.72110463  0.19240287    -0.30300
H2010       H  0.29319620  0.72693031  0.18605871     0.11600
S2011       S  0.29136850  0.76202809  0.15476285    -0.27400
H2012       H  0.26617476  0.75642968  0.16175074     0.08800
H2013       H  0.21690967  0.72461472  0.15423302     0.27200
H2014       H  0.27853216  0.71573489  0.19668742     0.22000
H2015       H  0.30124147  0.75420323  0.15063103     0.27300
H2016       H  0.26289078  0.75593116  0.19421667     0.16200
C2017       C  0.20881493  0.71735401  0.09485576    -0.11100
C2018       C  0.20170874  0.72762292  0.09924446     0.15400
C2019       C  0.19718819  0.73662681  0.09047534     0.02300
C2020       C  0.19929218  0.73482428  0.07757858    -0.15500
C2021       C  0.20580731  0.72421124  0.07313034    -0.10300
C2022       C  0.21076928  0.71547756  0.08191961     0.09000
C2023       C  0.19878950  0.72853808  0.11291030     0.10100
S2024       S  0.18832211  0.75039901  0.09506446    -0.24600
H2025       H  0.19539316  0.74152944  0.07088974     0.20300
S2026       S  0.21898784  0.70139966  0.07720879    -0.30300
H2027       H  0.21242086  0.71047988  0.10153567     0.10700
C2028       C  0.18999320  0.72039570  0.11872725     0.03900
C2029       C  0.18692603  0.72206483  0.13151487    -0.12600
C2030       C  0.19228305  0.73188051  0.13855522    -0.08300
C2031       C  0.20128416  0.73984393  0.13271060     0.07300
C2032       C  0.20446138  0.73806036  0.12004474    -0.13400
S2033       S  0.18238669  0.70811434  0.10975974    -0.30300
H2034       H  0.18022199  0.71581985  0.13601806     0.11600
S2035       S  0.20971252  0.75185470  0.14119265    -0.27400
H2036       H  0.21133632  0.74422344  0.11566374     0.08800
H2037       H  0.21100705  0.69870970  0.06699231     0.27200
H2038       H  0.17448783  0.70372819  0.11946196     0.22000
H2039       H  0.19897329  0.75953739  0.14242198     0.27300
H2040       H  0.18216759  0.74480922  0.10538551     0.16200
C2041       C  0.25071166  0.72488747  0.05096626    -0.11100
C2042       C  0.25231987  0.73671607  0.05668333     0.15400
C2043       C  0.24165654  0.74281218  0.06183972     0.02300
C2044       C  0.22968481  0.73761281  0.06001020    -0.15500
C2045       C  0.22807809  0.72591082  0.05402769    -0.10300
C2046       C  0.23889928  0.71913271  0.05025360     0.09000
C2047       C  0.26499974  0.74273350  0.05620088     0.10100
S2048       S  0.24265801  0.75707470  0.07101259    -0.24600
H2049       H  0.22151956  0.74282553  0.06318023     0.20300
S2050       S  0.23859966  0.70291335  0.04522300    -0.30300
H2051       H  0.25877484  0.71999937  0.04707189     0.10700
C2052       C  0.27599031  0.73621787  0.05998518     0.03900
C2053       C  0.28781887  0.74147045  0.05740596    -0.12600
C2054       C  0.28902135  0.75357606  0.05210128    -0.08300
C2055       C  0.27799042  0.76067402  0.04975574     0.07300
C2056       C  0.26619005  0.75495896  0.05114878    -0.13400
S2057       S  0.27507215  0.72143689  0.06850602    -0.30300
H2058       H  0.29620684  0.73608087  0.05949553     0.11600
S2059       S  0.27819475  0.77726028  0.04604362    -0.27400
H2060       H  0.25784032  0.76019998  0.04845727     0.08800
H2061       H  0.22661099  0.70006673  0.04997348     0.27200
H2062       H  0.28799810  0.72032701  0.07122451     0.22000
H2063       H  0.29000844  0.77965598  0.05153041     0.27300
H2064       H  0.25483588  0.75472088  0.07569820     0.16200
C2065       C  0.32147129  0.74183302  0.08742599    -0.11100
C2066       C  0.31610353  0.74996401  0.09633249     0.15400
C2067       C  0.30799379  0.75972843  0.09214680     0.02300
C2068       C  0.30599720  0.76152695  0.07918963    -0.15500
C2069       C  0.31186915  0.75374135  0.07029535    -0.10300
C2070       C  0.31936505  0.74353598  0.07451499     0.09000
C2071       C  0.31999447  0.74861994  0.10973251     0.10100
S2072       S  0.30030287  0.77046492  0.10281685    -0.24600
H2073       H  0.30025954  0.76938433  0.07600390     0.20300
S2074       S  0.32680320  0.73254282  0.06390659    -0.30300
H2075       H  0.32764293  0.73428959  0.09055226     0.10700
C2076       C  0.31679613  0.73790157  0.11696071     0.03900
C2077       C  0.32079055  0.73704858  0.12956559    -0.12600
C2078       C  0.32802939  0.74665472  0.13512407    -0.08300
C2079       C  0.33174339  0.75707343  0.12761330     0.07300
C2080       C  0.32756014  0.75801379  0.11511960    -0.13400
S2081       S  0.30704100  0.72562656  0.11036943    -0.30300
H2082       H  0.31778359  0.72911454  0.13527117     0.11600
S2083       S  0.34214216  0.76926109  0.13324046    -0.27400
H2084       H  0.33037739  0.76606770  0.10946416     0.08800
H2085       H  0.31842356  0.73422361  0.05378061     0.27200
H2086       H  0.30858246  0.71693506  0.12030818     0.22000
H2087       H  0.34930176  0.76118699  0.14100912     0.27300
H2088       H  0.29970134  0.76207023  0.11309013     0.16200
C2089       C  0.22792039  0.72348133  0.00855124    -0.11100
C2090       C  0.22721928  0.71124660  0.00348998     0.15400
C2091       C  0.22252374  0.70138088  0.01116253     0.02300
C2092       C  0.21734035  0.70414669  0.02292218    -0.15500
C2093       C  0.21753280  0.71641767  0.02784254    -0.10300
C2094       C  0.22316438  0.72617720  0.02065034     0.09000
C2095       C  0.23025284  0.70903376  0.98993000     0.10100
S2096       S  0.22270562  0.68503411  0.00642646    -0.24600
H2097       H  0.21319073  0.69656756  0.02840927     0.20300
S2098       S  0.22401142  0.74231112  0.02594993    -0.30300
H2099       H  0.23166433  0.73108520  0.00282401     0.10700
C2100       C  0.22090479  0.70466761  0.98155887     0.03900
C2101       C  0.22437471  0.70029767  0.96962079    -0.12600
C2102       C  0.23687756  0.70091570  0.96535732    -0.08300
C2103       C  0.24611834  0.70626019  0.97335433     0.07300
C2104       C  0.24268946  0.71026807  0.98554042    -0.13400
S2105       S  0.20448799  0.70456001  0.98608170    -0.30300
H2106       H  0.21728875  0.69624075  0.96351271     0.11600
S2107       S  0.26248161  0.70764899  0.96900625    -0.27400
H2108       H  0.24988290  0.71379546  0.99185602     0.08800
H2109       H  0.21366333  0.74190222  0.03416542     0.27200
H2110       H  0.19967440  0.70000948  0.97461414     0.22000
H2111       H  0.26265396  0.69831249  0.95966884     0.27300
H2112       H  0.23333070  0.68600449  0.99858751     0.16200
C2113       C  0.24446507  0.69336152  0.89817379    -0.11100
C2114       C  0.25323681  0.68406578  0.89468070     0.15400
C2115       C  0.25985245  0.67753892  0.90423263     0.02300
C2116       C  0.25713478  0.67995008  0.91691822    -0.15500
C2117       C  0.24792408  0.68879235  0.92050172    -0.10300
C2118       C  0.24160420  0.69564815  0.91091957     0.09000
C2119       C  0.25451767  0.68055166  0.88113883     0.10100
S2120       S  0.27133933  0.66546413  0.90085808    -0.24600
H2121       H  0.26201450  0.67454550  0.92411456     0.20300
S2122       S  0.22898208  0.70647077  0.91422209    -0.30300
H2123       H  0.23928087  0.69835368  0.89089948     0.10700
C2124       C  0.24780350  0.67028571  0.87599818     0.03900
C2125       C  0.24944511  0.66706800  0.86323063    -0.12600
C2126       C  0.25785693  0.67375163  0.85547568    -0.08300
C2127       C  0.26451145  0.68408558  0.86068886     0.07300
C2128       C  0.26269997  0.68742157  0.87335606    -0.13400
S2129       S  0.23692489  0.66145140  0.88566908    -0.30300
H2130       H  0.24410405  0.65936129  0.85922655     0.11600
S2131       S  0.27459434  0.69403838  0.85134022    -0.27400
H2132       H  0.26776860  0.69539976  0.87720703     0.08800
H2133       H  0.22342441  0.69871065  0.92343154     0.27200
H2134       H  0.23309457  0.65290292  0.87631239     0.22000
H2135       H  0.28294269  0.68416899  0.84841113     0.27300
H2136       H  0.27553701  0.67062422  0.88939947     0.16200
C2137       C  0.27584508  0.77376789  0.98309558    -0.11100
C2138       C  0.28807707  0.77436964  0.98810362     0.15400
C2139       C  0.29785729  0.77935598  0.98056821     0.02300
C2140       C  0.29505160  0.78457443  0.96878393    -0.15500
C2141       C  0.28275829  0.78449600  0.96391695    -0.10300
C2142       C  0.27304868  0.77885061  0.97113765     0.09000
C2143       C  0.29027397  0.77126099  0.00162262     0.10100
S2144       S  0.31406917  0.77980401  0.98567510    -0.24600
H2145       H  0.30256670  0.78885061  0.96334039     0.20300
S2146       S  0.25679528  0.77867087  0.96621248    -0.30300
H2147       H  0.26829666  0.76997529  0.98883083     0.10700
C2148       C  0.29324533  0.78087945  0.01026895     0.03900
C2149       C  0.29767335  0.77765838  0.02228583    -0.12600
C2150       C  0.29865169  0.76502599  0.02619027    -0.08300
C2151       C  0.29481744  0.75537769  0.01783949     0.07300
C2152       C  0.29059687  0.75861589  0.00566321    -0.13400
S2153       S  0.29176775  0.79731486  0.00587226    -0.30300
H2154       H  0.30074518  0.78502956  0.02862599     0.11600
S2155       S  0.29575989  0.73880460  0.02173888    -0.27400
H2156       H  0.28822034  0.75120341  0.99907232     0.08800
H2157       H  0.25718551  0.78984398  0.95905511     0.27200
H2158       H  0.29470951  0.80236349  0.01775609     0.22000
H2159       H  0.30519011  0.73958466  0.03097468     0.27300
H2160       H  0.31343293  0.76907990  0.99348869     0.16200
C2161       C  0.27447505  0.75180203  0.94015840    -0.11100
C2162       C  0.26215991  0.74971101  0.93577518     0.15400
C2163       C  0.25486706  0.76026427  0.93193758     0.02300
C2164       C  0.25956849  0.77247760  0.93367464    -0.15500
C2165       C  0.27177602  0.77450706  0.93830503    -0.10300
C2166       C  0.27955012  0.76395765  0.94076230     0.09000
C2167       C  0.25694244  0.73662848  0.93626023     0.10100
S2168       S  0.23962168  0.75886314  0.92456568    -0.24600
H2169       H  0.25361399  0.78049200  0.93147538     0.20300
S2170       S  0.29616354  0.76527081  0.94393562    -0.30300
H2171       H  0.28026455  0.74388498  0.94306303     0.10700
C2172       C  0.26341148  0.72615438  0.93116675     0.03900
C2173       C  0.25879670  0.71392334  0.93332684    -0.12600
C2174       C  0.24724283  0.71187416  0.93945082    -0.08300
C2175       C  0.24010584  0.72251411  0.94320097     0.07300
C2176       C  0.24538287  0.73456911  0.94233313    -0.13400
S2177       S  0.27724548  0.72824152  0.92147691    -0.30300
H2178       H  0.26426579  0.70588789  0.93027124     0.11600
S2179       S  0.22383605  0.72176966  0.94793008    -0.27400
H2180       H  0.24019140  0.74250359  0.94611105     0.08800
H2181       H  0.29772085  0.77699035  0.93786950     0.27200
H2182       H  0.27810159  0.71568133  0.91729914     0.22000
H2183       H  0.22136622  0.70983064  0.94282430     0.27300
H2184       H  0.24202017  0.74711280  0.91892270     0.16200
C2185       C  0.25811143  0.80816089  0.90344240    -0.11100
C2186       C  0.26457171  0.80138558  0.89415740     0.15400
C2187       C  0.27343180  0.79211179  0.89788700     0.02300
C2188       C  0.27617527  0.79037687  0.91073541    -0.15500
C2189       C  0.27012754  0.79760034  0.91999230    -0.10300
C2190       C  0.26066739  0.80626551  0.91625957     0.09000
C2191       C  0.26251835  0.80485806  0.88072273     0.10100
S2192       S  0.28192567  0.78260783  0.88668215    -0.24600
H2193       H  0.28343387  0.78371545  0.91348849     0.20300
S2194       S  0.25162559  0.81532058  0.92741851    -0.30300
H2195       H  0.25118222  0.81515803  0.90066270     0.10700
C2196       C  0.25194632  0.80059320  0.87393955     0.03900
C2197       C  0.25063220  0.80384149  0.86113664    -0.12600
C2198       C  0.25961808  0.81142368  0.85496444    -0.08300
C2199       C  0.26976627  0.81633872  0.86208013     0.07300
C2200       C  0.27121045  0.81283931  0.87475772    -0.13400
S2201       S  0.24046404  0.79051492  0.88144791    -0.30300
H2202       H  0.24284359  0.80001761  0.85578753     0.11600
S2203       S  0.28094590  0.82743613  0.85568646    -0.27400
H2204       H  0.27912682  0.81646945  0.88007649     0.08800
H2205       H  0.25219128  0.80630872  0.93717476     0.27200
H2206       H  0.23189553  0.79022033  0.87133582     0.22000
H2207       H  0.27222419  0.83353277  0.84772646     0.27300
H2208       H  0.27259791  0.78272416  0.87727932     0.16200
C2209       C  0.13192901  0.75467967  0.30128708    -0.11100
C2210       C  0.12639118  0.76617187  0.30473297     0.15400
C2211       C  0.13295565  0.77419744  0.31309627     0.02300
C2212       C  0.14519138  0.77102782  0.31699925    -0.15500
C2213       C  0.15099466  0.75974447  0.31317614    -0.10300
C2214       C  0.14410387  0.75135184  0.30538086     0.09000
C2215       C  0.11405231  0.76976122  0.29900177     0.10100
S2216       S  0.12633642  0.78871044  0.31899965    -0.24600
H2217       H  0.15028182  0.77750797  0.32301407     0.20300
S2218       S  0.15102734  0.73691084  0.29955300    -0.30300
H2219       H  0.12685709  0.74854200  0.29492423     0.10700
C2220       C  0.11298608  0.77994464  0.29044375     0.03900
C2221       C  0.10102352  0.78372364  0.28616447    -0.12600
C2222       C  0.09006927  0.77733896  0.28994789    -0.08300
C2223       C  0.09122602  0.76676776  0.29805852     0.07300
C2224       C  0.10317859  0.76301179  0.30234103    -0.13400
S2225       S  0.12686564  0.78811457  0.28492901    -0.30300
H2226       H  0.10013468  0.79188690  0.28005924     0.11600
S2227       S  0.07782324  0.75819024  0.30401869    -0.27400
H2228       H  0.10395314  0.75510678  0.30880667     0.08800
H2229       H  0.14016545  0.73212580  0.29367698     0.27200
H2230       H  0.12059749  0.79690363  0.27717904     0.22000
H2231       H  0.06983448  0.76869166  0.30526642     0.27300
H2232       H  0.11366045  0.78499473  0.31818246     0.16200
C2233       C  0.07519322  0.72654528  0.24712062    -0.11100
C2234       C  0.06806959  0.73746995  0.24498940     0.15400
C2235       C  0.06166008  0.73895531  0.23339702     0.02300
C2236       C  0.06279275  0.72968110  0.22409233    -0.15500
C2237       C  0.06994691  0.71876401  0.22622813    -0.10300
C2238       C  0.07596457  0.71709070  0.23799833     0.09000
C2239       C  0.06817803  0.74748742  0.25468718     0.10100
S2240       S  0.05176058  0.75236089  0.23007413    -0.24600
H2241       H  0.05791352  0.73084336  0.21519330     0.20300
S2242       S  0.08427455  0.70287846  0.24216116    -0.30300
H2243       H  0.08005900  0.72531926  0.25602591     0.10700
C2244       C  0.06122319  0.74644807  0.26596453     0.03900
C2245       C  0.06147964  0.75639595  0.27469718    -0.12600
C2246       C  0.06862688  0.76728916  0.27238222    -0.08300
C2247       C  0.07575709  0.76815218  0.26114029     0.07300
C2248       C  0.07551914  0.75823062  0.25251399    -0.13400
S2249       S  0.05168249  0.73267851  0.26898193    -0.30300
H2250       H  0.05593932  0.75586545  0.28323469     0.11600
S2251       S  0.08463406  0.78198191  0.25672921    -0.27400
H2252       H  0.08086739  0.75901453  0.24385104     0.08800
H2253       H  0.07621017  0.69475015  0.23551851     0.27200
H2254       H  0.04741666  0.73636255  0.28096434     0.22000
H2255       H  0.07674897  0.79084612  0.26256333     0.27300
H2256       H  0.04703956  0.75326432  0.24240761     0.16200
C2257       C  0.13148741  0.71969208  0.18195793    -0.11100
C2258       C  0.12701092  0.72674793  0.19223176     0.15400
C2259       C  0.13429748  0.73708800  0.19648327     0.02300
C2260       C  0.14579045  0.73994856  0.19052680    -0.15500
C2261       C  0.15058031  0.73240641  0.18074853    -0.10300
C2262       C  0.14310050  0.72237005  0.17622987     0.09000
C2263       C  0.11528874  0.72230101  0.19872194     0.10100
S2264       S  0.13007912  0.74639372  0.21004978    -0.24600
H2265       H  0.15153459  0.74751307  0.19427061     0.20300
S2266       S  0.14796002  0.71249690  0.16330737    -0.30300
H2267       H  0.12599121  0.71179355  0.17854787     0.10700
C2268       C  0.10388531  0.72920444  0.19865446     0.03900
C2269       C  0.09289965  0.72379117  0.20386927    -0.12600
C2270       C  0.09293352  0.71145068  0.20882790    -0.08300
C2271       C  0.10451384  0.70479242  0.20929485     0.07300
C2272       C  0.11544958  0.71030257  0.20435412    -0.13400
S2273       S  0.10297872  0.74435432  0.19086413    -0.30300
H2274       H  0.08402478  0.72877924  0.20313561     0.11600
S2275       S  0.10606779  0.68894700  0.21545184    -0.27400
H2276       H  0.12416265  0.70496337  0.20451231     0.08800
H2277       H  0.15545999  0.72168613  0.15735023     0.27200
H2278       H  0.09045107  0.74707981  0.19419701     0.22000
H2279       H  0.09460592  0.68838175  0.22193374     0.27300
H2280       H  0.12346644  0.73686125  0.21646326     0.16200
C2281       C  0.99708641  0.76988753  0.28798695    -0.11100
C2282       C  0.00361137  0.77592434  0.27814681     0.15400
C2283       C  0.99642289  0.78111385  0.26809278     0.02300
C2284       C  0.98320855  0.78054178  0.26845660    -0.15500
C2285       C  0.97682190  0.77622153  0.27921558    -0.10300
C2286       C  0.98399787  0.77099566  0.28923635     0.09000
C2287       C  0.01763310  0.77765671  0.27936065     0.10100
S2288       S  0.00325691  0.78998578  0.25529043    -0.24600
H2289       H  0.97787173  0.78497587  0.26092816     0.20300
S2290       S  0.97765928  0.76674196  0.30448184    -0.30300
H2291       H  0.00237033  0.76544369  0.29553691     0.10700
C2292       C  0.02307615  0.78249950  0.29055508     0.03900
C2293       C  0.03615439  0.78402100  0.29135865    -0.12600
C2294       C  0.04408980  0.78217188  0.28093712    -0.08300
C2295       C  0.03855056  0.77816979  0.26948556     0.07300
C2296       C  0.02566446  0.77508590  0.26912068    -0.13400
S2297       S  0.01351490  0.78799106  0.30356847    -0.30300
H2298       H  0.04020793  0.78727542  0.30012139     0.11600
S2299       S  0.04671152  0.77852480  0.25465305    -0.27400
H2300       H  0.02171896  0.77146928  0.26044516     0.08800
H2301       H  0.96560461  0.77196838  0.30324764     0.27200
H2302       H  0.02337941  0.79104600  0.31186232     0.22000
H2303       H  0.05453295  0.78870516  0.25785238     0.27300
H2304       H  0.01202307  0.79638325  0.26288162     0.16200
C2305       C  0.00139535  0.69237897  0.22866074    -0.11100
C2306       C  0.00651654  0.70306996  0.22268613     0.15400
C2307       C  0.99811433  0.71160492  0.21672679     0.02300
C2308       C  0.98527919  0.70859790  0.21563147    -0.15500
C2309       C  0.98012635  0.69788049  0.22153284    -0.10300
C2310       C  0.98838057  0.68990890  0.22843849     0.09000
C2311       C  0.02053876  0.70397189  0.22091139     0.10100
S2312       S  0.00322616  0.72638389  0.20996313    -0.24600
H2313       H  0.97959737  0.71434403  0.20953297     0.20300
S2314       S  0.98304120  0.67581813  0.23635532    -0.30300
H2315       H  0.00762203  0.68559228  0.23310268     0.10700
C2316       C  0.02930890  0.70339579  0.23098407     0.03900
C2317       C  0.04237713  0.70321885  0.22839421    -0.12600
C2318       C  0.04688504  0.70394121  0.21596164    -0.08300
C2319       C  0.03809981  0.70538615  0.20604969     0.07300
C2320       C  0.02518850  0.70494389  0.20855958    -0.13400
S2321       S  0.02395007  0.70306960  0.24712060    -0.30300
H2322       H  0.04908412  0.70219185  0.23601844     0.11600
S2323       S  0.04277540  0.70805672  0.18991980    -0.27400
H2324       H  0.01866219  0.70539944  0.20071817     0.08800
H2325       H  0.97086021  0.68029508  0.23879106     0.27200
H2326       H  0.03593535  0.70345557  0.25276766     0.22000
H2327       H  0.05379051  0.71480054  0.19289110     0.27300
H2328       H  0.01361109  0.72793374  0.21805336     0.16200
C2329       C  0.95504887  0.74334995  0.26312515    -0.11100
C2330       C  0.95105157  0.74417209  0.25055451     0.15400
C2331       C  0.94663099  0.75599592  0.24600759     0.02300
C2332       C  0.94802714  0.76682560  0.25348729    -0.15500
C2333       C  0.95231368  0.76594807  0.26598695    -0.10300
C2334       C  0.95490663  0.75385358  0.27099754     0.09000
C2335       C  0.95152153  0.73244260  0.24278010     0.10100
S2336       S  0.93828553  0.75781556  0.23128791    -0.24600
H2337       H  0.94535918  0.77593418  0.24966939     0.20300
S2338       S  0.95649508  0.75083795  0.28757010    -0.30300
H2339       H  0.95785519  0.73430788  0.26703345     0.10700
C2340       C  0.95771884  0.73202555  0.23102711     0.03900
C2341       C  0.95796813  0.72069765  0.22427971    -0.12600
C2342       C  0.95397816  0.70927594  0.22967539    -0.08300
C2343       C  0.94825930  0.70952380  0.24169121     0.07300
C2344       C  0.94663521  0.72112719  0.24781848    -0.13400
S2345       S  0.96644264  0.74539959  0.22500576    -0.30300
H2346       H  0.96130151  0.72070074  0.21476891     0.11600
S2347       S  0.94319945  0.69556973  0.25003228    -0.27400
H2348       H  0.94198926  0.72124175  0.25689527     0.08800
H2349       H  0.94848618  0.76073164  0.29128088     0.27200
H2350       H  0.97100031  0.73957915  0.21402103     0.22000
H2351       H  0.95056316  0.68690523  0.24335391     0.27300
H2352       H  0.93399530  0.74528627  0.23060904     0.16200
C2353       C  0.56908947  0.73533333  0.26351461    -0.11100
C2354       C  0.56575377  0.73885581  0.25117849     0.15400
C2355       C  0.56232959  0.72933710  0.24251787     0.02300
C2356       C  0.56223768  0.71667921  0.24638844    -0.15500
C2357       C  0.56495636  0.71325711  0.25886954    -0.10300
C2358       C  0.56839538  0.72273384  0.26754780     0.09000
C2359       C  0.56532222  0.75250812  0.24778827     0.10100
S2360       S  0.55727875  0.73275072  0.22663212    -0.24600
H2361       H  0.55942893  0.70946447  0.23977021     0.20300
S2362       S  0.57140402  0.71963901  0.28401609    -0.30300
H2363       H  0.57173684  0.74255869  0.27021381     0.10700
C2364       C  0.55661338  0.76074776  0.25352511     0.03900
C2365       C  0.55586921  0.77333534  0.24948214    -0.12600
C2366       C  0.56340165  0.77793375  0.23962071    -0.08300
C2367       C  0.57221822  0.76967725  0.23392368     0.07300
C2368       C  0.57321901  0.75717568  0.23824161    -0.13400
S2369       S  0.54587885  0.75511668  0.26549996    -0.30300
H2370       H  0.54919603  0.77967178  0.25385710     0.11600
S2371       S  0.58175619  0.77395483  0.22052021    -0.27400
H2372       H  0.57985836  0.75085315  0.23375677     0.08800
H2373       H  0.56742447  0.70703368  0.28448629     0.27200
H2374       H  0.53977855  0.76668592  0.26771998     0.22000
H2375       H  0.57404558  0.78374114  0.21603018     0.27300
H2376       H  0.55102307  0.74407629  0.22953487     0.16200
C2377       C  0.49337953  0.70033054  0.27644170    -0.11100
C2378       C  0.50018307  0.71099768  0.27256541     0.15400
C2379       C  0.49417783  0.72290824  0.27259115     0.02300
C2380       C  0.48198537  0.72403324  0.27757348    -0.15500
C2381       C  0.47548476  0.71344464  0.28220578    -0.10300
C2382       C  0.48109182  0.70139691  0.28106757     0.09000
C2383       C  0.51375148  0.70932815  0.26956167     0.10100
S2384       S  0.50173360  0.73704011  0.26685936    -0.24600
H2385       H  0.47778204  0.73331441  0.27830959     0.20300
S2386       S  0.47310852  0.68703259  0.28549694    -0.30300
H2387       H  0.49781504  0.69111548  0.27617485     0.10700
C2388       C  0.52322996  0.71286744  0.27819438     0.03900
C2389       C  0.53579194  0.70930113  0.27596952    -0.12600
C2390       C  0.53902118  0.70201617  0.26544957    -0.08300
C2391       C  0.52959408  0.69896699  0.25654299     0.07300
C2392       C  0.51710854  0.70265336  0.25869174    -0.13400
S2393       S  0.51916050  0.72082338  0.29265840    -0.30300
H2394       H  0.54296221  0.71137313  0.28290949     0.11600
S2395       S  0.53267837  0.68968050  0.24265622    -0.27400
H2396       H  0.50984700  0.69984746  0.25209113     0.08800
H2397       H  0.46090565  0.69150762  0.28285182     0.27200
H2398       H  0.53132697  0.72089273  0.29790778     0.22000
H2399       H  0.54571245  0.69173591  0.24214490     0.27300
H2400       H  0.51003390  0.73098587  0.25852171     0.16200
C2401       C  0.40986331  0.72506212  0.29195454    -0.11100
C2402       C  0.40713698  0.73372554  0.30155473     0.15400
C2403       C  0.41720340  0.73947185  0.30810364     0.02300
C2404       C  0.42962628  0.73602717  0.30525296    -0.15500
C2405       C  0.43232789  0.72680592  0.29617097    -0.10300
C2406       C  0.42227747  0.72139359  0.28932484     0.09000
C2407       C  0.39378652  0.73533285  0.30543196     0.10100
S2408       S  0.41496387  0.75080034  0.32058133    -0.24600
H2409       H  0.43726716  0.74011380  0.31064692     0.20300
S2410       S  0.42442194  0.70900718  0.27792126    -0.30300
H2411       H  0.40218212  0.72056721  0.28696008     0.10700
C2412       C  0.38675991  0.74624087  0.30250893     0.03900
C2413       C  0.37413926  0.74711145  0.30647407    -0.12600
C2414       C  0.36832334  0.73724821  0.31326607    -0.08300
C2415       C  0.37558699  0.72647073  0.31641659     0.07300
C2416       C  0.38810181  0.72559246  0.31235634    -0.13400
S2417       S  0.39372232  0.75879970  0.29332602    -0.30300
H2418       H  0.36863237  0.75530781  0.30382672     0.11600
S2419       S  0.36962380  0.71363293  0.32586156    -0.27400
H2420       H  0.39355177  0.71726710  0.31476248     0.08800
H2421       H  0.43477955  0.70321814  0.28382985     0.27200
H2422       H  0.38335745  0.76706220  0.29380771     0.22000
H2423       H  0.36230042  0.72135985  0.33374835     0.27300
H2424       H  0.40285621  0.74703916  0.32430876     0.16200
C2425       C  0.48848450  0.77898344  0.22857161    -0.11100
C2426       C  0.49912788  0.78083425  0.22085274     0.15400
C2427       C  0.49729165  0.78120675  0.20763810     0.02300
C2428       C  0.48533923  0.77904951  0.20256158    -0.15500
C2429       C  0.47460013  0.77770030  0.21019068    -0.10300
C2430       C  0.47624293  0.77820254  0.22345281     0.09000
C2431       C  0.51198070  0.78278697  0.22649069     0.10100
S2432       S  0.50957590  0.78534155  0.19662445    -0.24600
H2433       H  0.48433123  0.77904040  0.19239743     0.20300
S2434       S  0.46332905  0.77938982  0.23437617    -0.30300
H2435       H  0.48962679  0.77881301  0.23871267     0.10700
C2436       C  0.51460200  0.79277562  0.23490857     0.03900
C2437       C  0.52718698  0.79591420  0.23761827    -0.12600
C2438       C  0.53735018  0.78975520  0.23174498    -0.08300
C2439       C  0.53468801  0.77932214  0.22390489     0.07300
C2440       C  0.52215122  0.77559867  0.22192790    -0.13400
S2441       S  0.50216475  0.80254792  0.24120183    -0.30300
H2442       H  0.52914040  0.80390118  0.24364506     0.11600
S2443       S  0.54648871  0.77158222  0.21457197    -0.27400
H2444       H  0.52028160  0.76780518  0.21561415     0.08800
H2445       H  0.45498723  0.78532065  0.22592662     0.27200
H2446       H  0.50963607  0.80932392  0.24978563     0.22000
H2447       H  0.55229158  0.78290834  0.21083304     0.27300
H2448       H  0.51521009  0.79445012  0.20442143     0.16200
C2449       C  0.45910299  0.74332477  0.22915216    -0.11100
C2450       C  0.44870674  0.74474707  0.23718926     0.15400
C2451       C  0.43891832  0.75306335  0.23369883     0.02300
C2452       C  0.44023269  0.76052262  0.22289634    -0.15500
C2453       C  0.45093347  0.75960874  0.21516786    -0.10300
C2454       C  0.46015902  0.75039880  0.21802861     0.09000
C2455       C  0.44902971  0.73856222  0.24973159     0.10100
S2456       S  0.42469788  0.75481542  0.24281088    -0.24600
H2457       H  0.43306654  0.76748350  0.22077575     0.20300
S2458       S  0.47340733  0.74711694  0.20795241    -0.30300
H2459       H  0.46657452  0.73681766  0.23169549     0.10700
C2460       C  0.44913468  0.72532348  0.25110348     0.03900
C2461       C  0.45056484  0.72001593  0.26315054    -0.12600
C2462       C  0.45156638  0.72767189  0.27385278    -0.08300
C2463       C  0.45134218  0.74090806  0.27247456     0.07300
C2464       C  0.45001125  0.74620338  0.26046307    -0.13400
S2465       S  0.44710795  0.71522071  0.23759095    -0.30300
H2466       H  0.45085144  0.70986926  0.26433752     0.11600
S2467       S  0.45340948  0.75151491  0.28555051    -0.27400
H2468       H  0.45012366  0.75638368  0.25941223     0.08800
H2469       H  0.46812801  0.75219533  0.19689971     0.27200
H2470       H  0.44789099  0.70368128  0.24414787     0.22000
H2471       H  0.46073707  0.74333834  0.29300400     0.27300
H2472       H  0.42473243  0.74250483  0.24781989     0.16200
C2473       C  0.38806215  0.74365731  0.18720264    -0.11100
C2474       C  0.39409042  0.75424809  0.18203101     0.15400
C2475       C  0.38764551  0.76146530  0.17279578     0.02300
C2476       C  0.37503213  0.75873055  0.16994576    -0.15500
C2477       C  0.36875589  0.74848472  0.17556328    -0.10300
C2478       C  0.37560936  0.74060201  0.18395323     0.09000
C2479       C  0.40667802  0.75804648  0.18704155     0.10100
S2480       S  0.39491649  0.77441176  0.16444809    -0.24600
H2481       H  0.37003047  0.76473354  0.16332920     0.20300
S2482       S  0.36864022  0.72723204  0.19176870    -0.30300
H2483       H  0.39295622  0.73795609  0.19415531     0.10700
C2484       C  0.40828235  0.76948360  0.19364351     0.03900
C2485       C  0.42042717  0.77338887  0.19710304    -0.12600
C2486       C  0.43103135  0.76590844  0.19459216    -0.08300
C2487       C  0.42936797  0.75404660  0.18883793     0.07300
C2488       C  0.41720982  0.75023433  0.18508449    -0.13400
S2489       S  0.39485607  0.77911775  0.19775176    -0.30300
H2490       H  0.42174992  0.78245816  0.20158104     0.11600
S2491       S  0.44278527  0.74414246  0.18554887    -0.27400
H2492       H  0.41593545  0.74136085  0.18022457     0.08800
H2493       H  0.36623648  0.72089067  0.18039134     0.27200
H2494       H  0.40155749  0.78849429  0.20427534     0.22000
H2495       H  0.43593104  0.73370904  0.18110588     0.27300
H2496       H  0.40732329  0.76985394  0.16536790     0.16200
C2497       C  0.88978516  0.80020721  0.24744400    -0.11100
C2498       C  0.89400826  0.79764944  0.25972507     0.15400
C2499       C  0.88579019  0.80002254  0.26990115     0.02300
C2500       C  0.87349729  0.80425859  0.26757079    -0.15500
C2501       C  0.86902569  0.80662883  0.25526530    -0.10300
C2502       C  0.87748158  0.80465930  0.24504727     0.09000
C2503       C  0.90725671  0.79331832  0.26172163     0.10100
S2504       S  0.89041926  0.79803364  0.28616243    -0.24600
H2505       H  0.86736663  0.80572198  0.27558502     0.20300
S2506       S  0.87293991  0.80753785  0.22885787    -0.30300
H2507       H  0.89619907  0.79859784  0.23969038     0.10700
C2508       C  0.91024144  0.78143689  0.26708313     0.03900
C2509       C  0.92273386  0.77881670  0.27079660    -0.12600
C2510       C  0.93232312  0.78772489  0.26891328    -0.08300
C2511       C  0.92953763  0.79896993  0.26225614     0.07300
C2512       C  0.91705524  0.80169612  0.25884958    -0.13400
S2513       S  0.89812052  0.76972463  0.26937019    -0.30300
H2514       H  0.92493025  0.77010353  0.27569262     0.11600
S2515       S  0.94188769  0.80999589  0.25822234    -0.27400
H2516       H  0.91481544  0.81062912  0.25438787     0.08800
H2517       H  0.88476099  0.80529716  0.22332866     0.27200
H2518       H  0.90611362  0.76004879  0.27373066     0.22000
H2519       H  0.93437433  0.81833204  0.25110893     0.27300
H2520       H  0.90311870  0.80135813  0.28448338     0.16200
C2521       C  0.60179884  0.68062554  0.24853509    -0.11100
C2522       C  0.61055281  0.68524195  0.25726914     0.15400
C2523       C  0.60633814  0.69351073  0.26683037     0.02300
C2524       C  0.59341319  0.69608020  0.26806365    -0.15500
C2525       C  0.58458297  0.69090630  0.25971274    -0.10300
C2526       C  0.58894701  0.68343162  0.24959822     0.09000
C2527       C  0.62390547  0.68102767  0.25627395     0.10100
S2528       S  0.61690116  0.70067017  0.27803392    -0.24600
H2529       H  0.59021046  0.70162499  0.27597096     0.20300
S2530       S  0.57844377  0.67668372  0.23808527    -0.30300
H2531       H  0.60496385  0.67449927  0.24101806     0.10700
C2532       C  0.62932345  0.67248537  0.26497593     0.03900
C2533       C  0.64215952  0.66924206  0.26392109    -0.12600
C2534       C  0.64966719  0.67411198  0.25413353    -0.08300
C2535       C  0.64401142  0.68241455  0.24523750     0.07300
C2536       C  0.63126488  0.68564021  0.24634658    -0.13400
S2537       S  0.61979446  0.66548423  0.27722769    -0.30300
H2538       H  0.64636423  0.66284946  0.27070852     0.11600
S2539       S  0.65263903  0.68993616  0.23268533    -0.27400
H2540       H  0.62712176  0.69214777  0.23961005     0.08800
H2541       H  0.56917857  0.68612180  0.23902044     0.27200
H2542       H  0.62926813  0.65775893  0.28241129     0.22000
H2543       H  0.66261836  0.69366035  0.24049705     0.27300
H2544       H  0.62752640  0.70086765  0.27014743     0.16200
C2545       C  0.91146902  0.69629688  0.22338628    -0.11100
C2546       C  0.90740015  0.68425818  0.22727819     0.15400
C2547       C  0.91639490  0.67451485  0.22841256     0.02300
C2548       C  0.92905381  0.67693890  0.22564195    -0.15500
C2549       C  0.93323611  0.68889154  0.22156676    -0.10300
C2550       C  0.92418147  0.69866374  0.22028497     0.09000
C2551       C  0.89368092  0.68174203  0.22918369     0.10100
S2552       S  0.91227273  0.65857515  0.23280782    -0.24600
H2553       H  0.93576411  0.66927468  0.22656946     0.20300
S2554       S  0.92784165  0.71396439  0.21380599    -0.30300
H2555       H  0.90458208  0.70376614  0.22223209     0.10700
C2556       C  0.88770532  0.68385078  0.24084621     0.03900
C2557       C  0.87498809  0.68035963  0.24249755    -0.12600
C2558       C  0.86795898  0.67480732  0.23269107    -0.08300
C2559       C  0.87411621  0.67268348  0.22100368     0.07300
C2560       C  0.88676154  0.67622353  0.21939505    -0.13400
S2561       S  0.89639647  0.69080157  0.25368952    -0.30300
H2562       H  0.87043851  0.68218369  0.25142877     0.11600
S2563       S  0.86665813  0.66496948  0.20788692    -0.27400
H2564       H  0.89137278  0.67436550  0.21048477     0.08800
H2565       H  0.93790238  0.70991035  0.20623512     0.27200
H2566       H  0.88666441  0.69019318  0.26265219     0.22000
H2567       H  0.86068020  0.65593447  0.21549171     0.27300
H2568       H  0.90216734  0.66171733  0.24072423     0.16200
C2569       C  0.83452763  0.72719525  0.25470405    -0.11100
C2570       C  0.82785786  0.73445927  0.24590257     0.15400
C2571       C  0.82182378  0.72849048  0.23570346     0.02300
C2572       C  0.82262741  0.71538030  0.23450765    -0.15500
C2573       C  0.82937806  0.70801134  0.24325833    -0.10300
C2574       C  0.83555450  0.71411485  0.25340111     0.09000
C2575       C  0.82838413  0.74830975  0.24700113     0.10100
S2576       S  0.81314383  0.73706076  0.22379892    -0.24600
H2577       H  0.81784186  0.71090165  0.22669098     0.20300
S2578       S  0.84566620  0.70604070  0.26445997    -0.30300
H2579       H  0.83941607  0.73184001  0.26236562     0.10700
C2580       C  0.82100777  0.75484459  0.25585146     0.03900
C2581       C  0.82202667  0.76800902  0.25666318    -0.12600
C2582       C  0.83030514  0.77473104  0.24880070    -0.08300
C2583       C  0.83792692  0.76803682  0.24016207     0.07300
C2584       C  0.83674251  0.75494895  0.23924502    -0.13400
S2585       S  0.81007830  0.74643476  0.26583695    -0.30300
H2586       H  0.81620077  0.77311607  0.26328420     0.11600
S2587       S  0.84980617  0.77547765  0.23054528    -0.27400
H2588       H  0.84258407  0.74983718  0.23262147     0.08800
H2589       H  0.85176059  0.69882050  0.25517203     0.27200
H2590       H  0.80507725  0.75708800  0.27192814     0.22000
H2591       H  0.85378424  0.78389636  0.23996260     0.27300
H2592       H  0.80976476  0.74737230  0.23136842     0.16200
C2593       C  0.77149342  0.66261064  0.23680604    -0.11100
C2594       C  0.76611339  0.66878826  0.24718031     0.15400
C2595       C  0.77419827  0.67427980  0.25623653     0.02300
C2596       C  0.78731035  0.67367501  0.25460022    -0.15500
C2597       C  0.79267231  0.66795868  0.24394199    -0.10300
C2598       C  0.78457898  0.66208658  0.23511677     0.09000
C2599       C  0.75210184  0.66903280  0.24841064     0.10100
S2600       S  0.76840000  0.68260453  0.26984341    -0.24600
H2601       H  0.79336164  0.67817830  0.26146931     0.20300
S2602       S  0.79032513  0.65330627  0.22177856    -0.30300
H2603       H  0.76541792  0.65804060  0.22999966     0.10700
C2604       C  0.74440638  0.67498873  0.23929217     0.03900
C2605       C  0.73124913  0.67476114  0.24066533    -0.12600
C2606       C  0.72548157  0.66881366  0.25102239    -0.08300
C2607       C  0.73321723  0.66274569  0.26008662     0.07300
C2608       C  0.74636607  0.66298704  0.25871712    -0.13400
S2609       S  0.75130868  0.68333224  0.22611683    -0.30300
H2610       H  0.72539927  0.67944950  0.23371715     0.11600
S2611       S  0.72693882  0.65398116  0.27323932    -0.27400
H2612       H  0.75219240  0.65820709  0.26563773     0.08800
H2613       H  0.80076081  0.64815510  0.22817122     0.27200
H2614       H  0.73996221  0.68740948  0.22058483     0.22000
H2615       H  0.71702797  0.64852698  0.26633918     0.27300
H2616       H  0.75746986  0.68734631  0.26401714     0.16200
C2617       C  0.63225280  0.79763639  0.23346003    -0.11100
C2618       C  0.62412706  0.80476833  0.24103394     0.15400
C2619       C  0.62935082  0.81379128  0.24932721     0.02300
C2620       C  0.64247871  0.81548917  0.24978870    -0.15500
C2621       C  0.65057788  0.80871580  0.24180965    -0.10300
C2622       C  0.64533987  0.79954190  0.23366718     0.09000
C2623       C  0.61027796  0.80298295  0.23945699     0.10100
S2624       S  0.61979928  0.82367503  0.25929368    -0.24600
H2625       H  0.64637046  0.82245951  0.25613927     0.20300
S2626       S  0.65523218  0.78975183  0.22387213    -0.30300
H2627       H  0.62823736  0.79063828  0.22723028     0.10700
C2628       C  0.60422407  0.80684464  0.22826808     0.03900
C2629       C  0.59119926  0.80516980  0.22697862    -0.12600
C2630       C  0.58383545  0.79996481  0.23671048    -0.08300
C2631       C  0.58989268  0.79624118  0.24802760     0.07300
C2632       C  0.60305341  0.79752923  0.24915392    -0.13400
S2633       S  0.61297598  0.81458226  0.21584116    -0.30300
H2634       H  0.58660141  0.80824773  0.21838720     0.11600
S2635       S  0.58144504  0.79068299  0.26167429    -0.27400
H2636       H  0.60765202  0.79466344  0.25782385     0.08800
H2637       H  0.64552270  0.78318241  0.21771474     0.27200
H2638       H  0.60269248  0.81704369  0.20783729     0.22000
H2639       H  0.57038577  0.79762362  0.25939645     0.27300
H2640       H  0.60938767  0.82443512  0.25113940     0.16200
C2641       C  0.69416916  0.75470662  0.25569598    -0.11100
C2642       C  0.68702173  0.74797278  0.24689386     0.15400
C2643       C  0.68066546  0.75457751  0.23721345     0.02300
C2644       C  0.68189351  0.76770560  0.23635048    -0.15500
C2645       C  0.68897754  0.77450797  0.24520860    -0.10300
C2646       C  0.69531550  0.76784014  0.25490440     0.09000
C2647       C  0.68693789  0.73403713  0.24773678     0.10100
S2648       S  0.67075888  0.74683970  0.22578697    -0.24600
H2649       H  0.67697267  0.77268062  0.22889833     0.20300
S2650       S  0.70557955  0.77539914  0.26610855    -0.30300
H2651       H  0.69918275  0.74963564  0.26304097     0.10700
C2652       C  0.69411261  0.72659126  0.23943427     0.03900
C2653       C  0.69389354  0.71341036  0.24066768    -0.12600
C2654       C  0.68679425  0.70751827  0.25016851    -0.08300
C2655       C  0.67949890  0.71504820  0.25840156     0.07300
C2656       C  0.67979277  0.72820215  0.25719224    -0.13400
S2657       S  0.70386054  0.73390128  0.22753318    -0.30300
H2658       H  0.69947711  0.70766333  0.23436741     0.11600
S2659       S  0.66922872  0.70852561  0.27028140    -0.27400
H2660       H  0.67423129  0.73394924  0.26352842     0.08800
H2661       H  0.71048548  0.78416175  0.25741804     0.27200
H2662       H  0.70964622  0.72276452  0.22325851     0.22000
H2663       H  0.66526063  0.69820396  0.26302322     0.27300
H2664       H  0.66713414  0.73671637  0.23357024     0.16200
C2665       C  0.74671324  0.82075722  0.23597716    -0.11100
C2666       C  0.75311700  0.81345238  0.24498519     0.15400
C2667       C  0.74609179  0.80637965  0.25382576     0.02300
C2668       C  0.73289702  0.80678586  0.25350181    -0.15500
C2669       C  0.72644754  0.81391980  0.24436199    -0.10300
C2670       C  0.73351521  0.82117791  0.23564966     0.09000
C2671       C  0.76709043  0.81394749  0.24540189     0.10100
S2672       S  0.75341395  0.79657798  0.26568167    -0.24600
H2673       H  0.72762192  0.80121282  0.26025363     0.20300
S2674       S  0.72629977  0.83173797  0.22439297    -0.30300
H2675       H  0.75205461  0.82641779  0.22934633     0.10700
C2676       C  0.77457006  0.80717457  0.23678162     0.03900
C2677       C  0.78777116  0.80765130  0.23778490    -0.12600
C2678       C  0.79366384  0.81474303  0.24727963    -0.08300
C2679       C  0.78609528  0.82187556  0.25561167     0.07300
C2680       C  0.77294863  0.82127071  0.25468183    -0.08600
S2681       S  0.76727039  0.79750992  0.22485638    -0.30300
H2682       H  0.79352543  0.80219132  0.23138611     0.11600
S2683       S  0.79261711  0.83231136  0.26730294    -0.27400
H2684       H  0.76721265  0.82665243  0.26117931     0.08800
H2685       H  0.71658088  0.83565331  0.23249464     0.27200
H2686       H  0.77846193  0.79245705  0.21989096     0.22000
H2687       H  0.80284751  0.83624109  0.25984338     0.27300
H2688       H  0.76409595  0.79339132  0.25855415     0.16200
C2689       C  0.69654363  0.58436744  0.25148642    -0.11100
C2690       C  0.70346836  0.59323858  0.25835566     0.15400
C2691       C  0.71337973  0.58904066  0.26624376     0.02300
C2692       C  0.71561531  0.57603855  0.26764408    -0.15500
C2693       C  0.70822076  0.56715687  0.26124025    -0.10300
C2694       C  0.69887718  0.57144349  0.25274443     0.09000
C2695       C  0.69961983  0.60667424  0.25743130     0.10100
S2696       S  0.72309284  0.59972781  0.27516936    -0.24600
H2697       H  0.72273029  0.57282102  0.27424732     0.20300
S2698       S  0.68932361  0.56085060  0.24352432    -0.30300
H2699       H  0.68905563  0.58754392  0.24528689     0.10700
C2700       C  0.70244120  0.61394431  0.24668051     0.03900
C2701       C  0.69803713  0.62641195  0.24582524    -0.12600
C2702       C  0.69081968  0.63185648  0.25551528    -0.08300
C2703       C  0.68774832  0.62437062  0.26616830     0.07300
C2704       C  0.69228467  0.61195256  0.26705762    -0.13400
S2705       S  0.71204403  0.60744361  0.23424584    -0.30300
H2706       H  0.70060596  0.63208915  0.23772711     0.11600
S2707       S  0.67770962  0.62987461  0.27868664    -0.27400
H2708       H  0.68985708  0.60625072  0.27519942     0.08800
H2709       H  0.69820127  0.55100337  0.24308237     0.27200
H2710       H  0.71231488  0.61831880  0.22660955     0.22000
H2711       H  0.66985428  0.63711274  0.27077725     0.27300
H2712       H  0.72177289  0.61016369  0.26706105     0.16200
C2713       C  0.76800101  0.54604791  0.22802749    -0.11100
C2714       C  0.76645212  0.55145247  0.24001585     0.15400
C2715       C  0.77719570  0.55644436  0.24614399     0.02300
C2716       C  0.78916187  0.55452960  0.24098484    -0.15500
C2717       C  0.79074523  0.54870326  0.22923370    -0.10300
C2718       C  0.77988628  0.54529968  0.22232140     0.09000
C2719       C  0.75393047  0.55068481  0.24643156     0.10100
S2720       S  0.77630655  0.56551021  0.26047515    -0.24600
H2721       H  0.79733705  0.55753590  0.24626924     0.20300
S2722       S  0.78042852  0.54073351  0.20600172    -0.30300
H2723       H  0.75990412  0.54237386  0.22303673     0.10700
C2724       C  0.74260464  0.55486577  0.24074128     0.03900
C2725       C  0.73109352  0.55306274  0.24705769    -0.12600
C2726       C  0.73065128  0.54803232  0.25933252    -0.08300
C2727       C  0.74211516  0.54496853  0.26537198     0.07300
C2728       C  0.75341008  0.54556758  0.25865369    -0.13400
S2729       S  0.74272130  0.56302175  0.22575815    -0.30300
H2730       H  0.72237330  0.55559454  0.24242284     0.11600
S2731       S  0.74318203  0.54152245  0.28193589    -0.27400
H2732       H  0.76200012  0.54246791  0.26323650     0.08800
H2733       H  0.79190577  0.54678823  0.20332283     0.27200
H2734       H  0.72989513  0.56636935  0.22564174     0.22000
H2735       H  0.73322093  0.54963925  0.28517362     0.27300
H2736       H  0.76417014  0.57034159  0.25817528     0.16200
C2737       C  0.82687004  0.61316105  0.22236361    -0.11100
C2738       C  0.82022211  0.60722150  0.23215413     0.15400
C2739       C  0.81755588  0.61407234  0.24321665     0.02300
C2740       C  0.82157276  0.62659977  0.24425137    -0.15500
C2741       C  0.82801912  0.63267745  0.23437722    -0.10300
C2742       C  0.83081297  0.62573972  0.22336594     0.09000
C2743       C  0.81720145  0.59359668  0.23102315     0.10100
S2744       S  0.80876627  0.60748517  0.25621032    -0.24600
H2745       H  0.81915479  0.63180831  0.25268107     0.20300
S2746       S  0.83996398  0.63215779  0.21061339    -0.30300
H2747       H  0.82926182  0.60784864  0.21399061     0.10700
C2748       C  0.80862645  0.58901893  0.22195023     0.03900
C2749       C  0.80676767  0.57593403  0.22077211    -0.12600
C2750       C  0.81335963  0.56739323  0.22846078    -0.08300
C2751       C  0.82143564  0.57205441  0.23794821     0.07300
C2752       C  0.82335785  0.58504412  0.23903843    -0.13400
S2753       S  0.80016981  0.59981688  0.21180926    -0.30300
H2754       H  0.80062976  0.57230520  0.21348479     0.11600
S2755       S  0.82971529  0.56188570  0.24883800    -0.27400
H2756       H  0.82985129  0.58852673  0.24610014     0.08800
H2757       H  0.84824659  0.63850397  0.21872958     0.27200
H2758       H  0.79360667  0.59061190  0.20490983     0.22000
H2759       H  0.82092204  0.55197382  0.24854908     0.27300
H2760       H  0.80138883  0.59924842  0.24893146     0.16200
C2761       C  0.72168960  0.47647398  0.27921828    -0.11100
C2762       C  0.73221243  0.48408020  0.27675505     0.15400
C2763       C  0.74440609  0.47877099  0.27777582     0.02300
C2764       C  0.74574670  0.46620302  0.28185123    -0.15500
C2765       C  0.73520236  0.45898562  0.28526354    -0.10300
C2766       C  0.72303538  0.46404560  0.28342389     0.09000
C2767       C  0.72988886  0.49777853  0.27499895     0.10100
S2768       S  0.75861862  0.48761883  0.27481055    -0.24600
H2769       H  0.75510077  0.46233986  0.28325154     0.20300
S2770       S  0.70884039  0.45532677  0.28684763    -0.30300
H2771       H  0.71231687  0.48046375  0.27839388     0.10700
C2772       C  0.73033410  0.50381481  0.26314025     0.03900
C2773       C  0.72613514  0.51640122  0.26199707    -0.12600
C2774       C  0.72138279  0.52292681  0.27248586    -0.08300
C2775       C  0.72162464  0.51697710  0.28446141     0.07300
C2776       C  0.72585232  0.50456088  0.28553711    -0.13400
S2777       S  0.73540593  0.49522956  0.24939879    -0.30300
H2778       H  0.72581233  0.52088944  0.25282063     0.11600
S2779       S  0.71626618  0.52441898  0.29879466    -0.27400
H2780       H  0.72559113  0.49994793  0.29467205     0.08800
H2781       H  0.71401667  0.44324102  0.28511131     0.27200
H2782       H  0.73480281  0.50546841  0.24093969     0.22000
H2783       H  0.71761984  0.53698285  0.29482125     0.27300
H2784       H  0.75374949  0.49969455  0.27721142     0.16200
C2785       C  0.77637070  0.48072054  0.21203908    -0.11100
C2786       C  0.78902357  0.48431830  0.21335066     0.15400
C2787       C  0.79858311  0.47537156  0.21092892     0.02300
C2788       C  0.79539248  0.46364946  0.20587389    -0.15500
C2789       C  0.78280564  0.46037866  0.20359026    -0.10300
C2790       C  0.77316049  0.46883636  0.20716422     0.09000
C2791       C  0.79216271  0.49783857  0.21516210     0.10100
S2792       S  0.81508228  0.47868718  0.21328613    -0.24600
H2793       H  0.80283552  0.45712808  0.20333736     0.20300
S2794       S  0.75670587  0.46540242  0.20492734    -0.30300
H2795       H  0.76899205  0.48750488  0.21400017     0.10700
C2796       C  0.79715076  0.50496090  0.20509428     0.03900
C2797       C  0.80164178  0.51715089  0.20732037    -0.12600
C2798       C  0.80116381  0.52254811  0.21936568    -0.08300
C2799       C  0.79572819  0.51559113  0.22938337     0.07300
C2800       C  0.79109296  0.50337709  0.22711481    -0.13400
S2801       S  0.79804435  0.49842673  0.18939910    -0.30300
H2802       H  0.80582364  0.52248421  0.19967111     0.11600
S2803       S  0.79525739  0.52125539  0.24537545    -0.27400
H2804       H  0.78728715  0.49789136  0.23485902     0.08800
H2805       H  0.75823657  0.45905484  0.19343110     0.27200
H2806       H  0.80428821  0.50867180  0.18371823     0.22000
H2807       H  0.80626572  0.52857412  0.24472627     0.27300
H2808       H  0.81337260  0.48765299  0.22286532     0.16200
C2809       C  0.76284078  0.42795360  0.26085786    -0.11100
C2810       C  0.75578255  0.43297834  0.25079284     0.15400
C2811       C  0.74370154  0.43800987  0.25342760     0.02300
C2812       C  0.73906061  0.43772130  0.26576619    -0.15500
C2813       C  0.74661929  0.43388784  0.27596644    -0.10300
C2814       C  0.75877511  0.42911071  0.27337078     0.09000
C2815       C  0.76135882  0.43323844  0.23782758     0.10100
S2816       S  0.73410831  0.44596545  0.24180944    -0.24600
H2817       H  0.72971350  0.44137099  0.26753773     0.20300
S2818       S  0.77016890  0.42595331  0.28549251    -0.30300
H2819       H  0.77203133  0.42390655  0.25904490     0.10700
C2820       C  0.77335823  0.43854105  0.23541320     0.03900
C2821       C  0.77793616  0.43897317  0.22302825    -0.12600
C2822       C  0.77044610  0.43542768  0.21272785    -0.08300
C2823       C  0.75836066  0.43034548  0.21513193     0.07300
C2824       C  0.75430358  0.42866215  0.22759606    -0.13400
S2825       S  0.78251603  0.44586721  0.24776671    -0.30300
H2826       H  0.78726376  0.44263435  0.22126471     0.11600
S2827       S  0.74712398  0.42701896  0.20289255    -0.27400
H2828       H  0.74514538  0.42449403  0.22928511     0.08800
H2829       H  0.76721379  0.43699686  0.29218690     0.27200
H2830       H  0.79309172  0.44899181  0.24042075     0.22000
H2831       H  0.75072892  0.43724884  0.19527528     0.27300
H2832       H  0.74426051  0.45169834  0.23549636     0.16200
C2833       C  0.74534001  0.17681926  0.25978822    -0.11100
C2834       C  0.75289824  0.16882222  0.25246299     0.15400
C2835       C  0.76177857  0.16093835  0.25855507     0.02300
C2836       C  0.76301213  0.16132622  0.27170591    -0.15500
C2837       C  0.75538779  0.16923233  0.27906155    -0.10300
C2838       C  0.74653945  0.17717624  0.27295469     0.09000
C2839       C  0.75191489  0.16948296  0.23848254     0.10100
S2840       S  0.77171580  0.15007093  0.25009144    -0.24600
H2841       H  0.76979157  0.15516603  0.27627070     0.20300
S2842       S  0.73703239  0.18848165  0.28133356    -0.30300
H2843       H  0.73868291  0.18307350  0.25517193     0.10700
C2844       C  0.74140966  0.16466082  0.23194731     0.03900
C2845       C  0.74111666  0.16519755  0.21869441    -0.12600
C2846       C  0.75108484  0.17056037  0.21177984    -0.08300
C2847       C  0.76134667  0.17586910  0.21846630     0.07300
C2848       C  0.76173231  0.17507619  0.23164256    -0.13400
S2849       S  0.72862388  0.15734428  0.24046554    -0.30300
H2850       H  0.73322113  0.16114396  0.21368457     0.11600
S2851       S  0.77395988  0.18434526  0.21086699    -0.27400
H2852       H  0.76968850  0.17904275  0.23665361     0.08800
H2853       H  0.74636153  0.19158357  0.29021478     0.27200
H2854       H  0.72087435  0.15507299  0.22996073     0.22000
H2855       H  0.76607125  0.19051682  0.20212793     0.27300
H2856       H  0.76320960  0.14774672  0.24021149     0.16200
C2857       C  0.73625164  0.36907065  0.31303628    -0.11100
C2858       C  0.74677271  0.37479592  0.30740503     0.15400
C2859       C  0.75791410  0.36770019  0.30596890     0.02300
C2860       C  0.75823752  0.35508452  0.30990510    -0.15500
C2861       C  0.74763554  0.34913017  0.31523575    -0.10300
C2862       C  0.73659345  0.35642771  0.31709176     0.09000
C2863       C  0.74628357  0.38845686  0.30417906     0.10100
S2864       S  0.77202035  0.37414216  0.29900275    -0.24600
H2865       H  0.76680121  0.34975509  0.30832936     0.20300
S2866       S  0.72285677  0.35044459  0.32506351    -0.30300
H2867       H  0.72780121  0.37460143  0.31455940     0.10700
C2868       C  0.73939548  0.39312415  0.29377308     0.03900
C2869       C  0.73895722  0.40622641  0.29144975    -0.12600
C2870       C  0.74518938  0.41473900  0.29941937    -0.08300
C2871       C  0.75252759  0.40990603  0.30953050     0.07300
C2872       C  0.75294967  0.39690656  0.31176689    -0.13400
S2873       S  0.73100079  0.38239766  0.28362063    -0.30300
H2874       H  0.73318126  0.40989556  0.28386102     0.11600
S2875       S  0.76136199  0.41971713  0.32026905    -0.27400
H2876       H  0.75838653  0.39332698  0.31966139     0.08800
H2877       H  0.72974158  0.34346787  0.33404483     0.27200
H2878       H  0.72645639  0.39157300  0.27514342     0.22000
H2879       H  0.76194134  0.43056283  0.31268985     0.27300
H2880       H  0.76591738  0.38264641  0.29082828     0.16200
C2881       C  0.76394414  0.25355468  0.32123050    -0.11100
C2882       C  0.75535225  0.24681138  0.31383570     0.15400
C2883       C  0.74582871  0.25340572  0.30725724     0.02300
C2884       C  0.74490539  0.26652273  0.30849211    -0.15500
C2885       C  0.75344502  0.27330748  0.31598223    -0.10300
C2886       C  0.76307124  0.26665606  0.32245099     0.09000
C2887       C  0.75587237  0.23285910  0.31421462     0.10100
S2888       S  0.73466395  0.24564314  0.29708318    -0.24600
H2889       H  0.73758900  0.27149903  0.30335784     0.20300
S2890       S  0.77407590  0.27410518  0.33301796    -0.30300
H2891       H  0.77112820  0.24848971  0.32647099     0.10700
C2892       C  0.76609377  0.22612507  0.30912517     0.03900
C2893       C  0.76646325  0.21295110  0.31035820    -0.12600
C2894       C  0.75688958  0.20630868  0.31671408    -0.08300
C2895       C  0.74676734  0.21320891  0.32202042     0.07300
C2896       C  0.74629516  0.22632272  0.32053051    -0.13400
S2897       S  0.77848844  0.23426553  0.30074944    -0.30300
H2898       H  0.77418918  0.20778722  0.30617259     0.11600
S2899       S  0.73453810  0.20608697  0.33141107    -0.27400
H2900       H  0.73858244  0.23155675  0.32469415     0.08800
H2901       H  0.76516194  0.28229727  0.33839378     0.27200
H2902       H  0.78604452  0.22361424  0.29842219     0.22000
H2903       H  0.74284815  0.19824462  0.33820510     0.27300
H2904       H  0.74257235  0.23555432  0.29371564     0.16200
C2905       C  0.76490795  0.39789711  0.17829369    -0.11100
C2906       C  0.77017530  0.38973758  0.18725607     0.15400
C2907       C  0.77627945  0.39487368  0.19791746     0.02300
C2908       C  0.77741134  0.40803529  0.19906513    -0.15500
C2909       C  0.77245206  0.41621541  0.18986589    -0.10300
C2910       C  0.76585779  0.41098938  0.17949476     0.09000
C2911       C  0.76930881  0.37598014  0.18483958     0.10100
S2912       S  0.78336474  0.38521247  0.21002678    -0.24600
H2913       H  0.78264112  0.41188358  0.20693144     0.20300
S2914       S  0.75847622  0.42038034  0.16730724    -0.30300
H2915       H  0.76008192  0.39399436  0.17018979     0.10700
C2916       C  0.75867029  0.36901084  0.18859495     0.03900
C2917       C  0.75765833  0.35625109  0.18520105    -0.12600
C2918       C  0.76703712  0.35026483  0.17800361    -0.08300
C2919       C  0.77759028  0.35740178  0.17404177     0.07300
C2920       C  0.77865715  0.37010594  0.17759181    -0.13400
S2921       S  0.74647807  0.37638023  0.19787769    -0.30300
H2922       H  0.74964384  0.35082288  0.18842378     0.11600
S2923       S  0.78966383  0.35107395  0.16394175    -0.27400
H2924       H  0.78667377  0.37556595  0.17439338     0.08800
H2925       H  0.75653136  0.43123252  0.17458964     0.27200
H2926       H  0.73837487  0.36589891  0.19839023     0.22000
H2927       H  0.78146508  0.34335404  0.15696025     0.27300
H2928       H  0.77568846  0.37456538  0.20838523     0.16200
C2929       C  0.76421959  0.25371833  0.18353111    -0.11100
C2930       C  0.75685903  0.24823885  0.17404126     0.15400
C2931       C  0.75069153  0.25608683  0.16518496     0.02300
C2932       C  0.75206641  0.26920105  0.16601040    -0.15500
C2933       C  0.75944570  0.27471421  0.17548901    -0.10300
C2934       C  0.76549945  0.26683538  0.18441961     0.09000
C2935       C  0.75568212  0.23433537  0.17381048     0.10100
S2936       S  0.74128129  0.25005853  0.15237107    -0.24600
H2937       H  0.74747328  0.27516124  0.15906471     0.20300
S2938       S  0.77453863  0.27291524  0.19744561    -0.30300
H2939       H  0.76886596  0.24771511  0.19040361     0.10700
C2940       C  0.76382409  0.22679211  0.16656888     0.03900
C2941       C  0.76242494  0.21361380  0.16679950    -0.12600
C2942       C  0.75300911  0.20782178  0.17411959    -0.08300
C2943       C  0.74500660  0.21547783  0.18153607     0.07300
C2944       C  0.74637574  0.22861015  0.18121918    -0.13400
S2945       S  0.77597719  0.23397910  0.15706422    -0.30300
H2946       H  0.76859483  0.20779343  0.16114528     0.11600
S2947       S  0.73331751  0.20910907  0.19209022    -0.27400
H2948       H  0.74023978  0.23443458  0.18692569     0.08800
H2949       H  0.76671149  0.28341894  0.19955711     0.27200
H2950       H  0.78080044  0.22271966  0.15199589     0.22000
H2951       H  0.74089158  0.19903443  0.19630693     0.27300
H2952       H  0.73818071  0.23835218  0.15775055     0.16200
C2953       C  0.74394317  0.31794256  0.25878201    -0.11100
C2954       C  0.75328163  0.31059855  0.25301424     0.15400
C2955       C  0.76180341  0.30370592  0.26058902     0.02300
C2956       C  0.76107951  0.30461936  0.27371296    -0.15500
C2957       C  0.75180895  0.31203559  0.27952786    -0.10300
C2958       C  0.74314367  0.31878672  0.27192334     0.09000
C2959       C  0.75469428  0.31127613  0.23915840     0.10100
S2960       S  0.77373167  0.29351667  0.25406379    -0.24600
H2961       H  0.76763462  0.29924438  0.27944805     0.20300
S2962       S  0.73135403  0.32919596  0.27834469    -0.30300
H2963       H  0.73750206  0.32339005  0.25298614     0.10700
C2964       C  0.74609139  0.30541291  0.23094575     0.03900
C2965       C  0.74791267  0.30637605  0.21787351    -0.12600
C2966       C  0.75820569  0.31304373  0.21285683    -0.08300
C2967       C  0.76663334  0.31914724  0.22117198     0.07300
C2968       C  0.76486088  0.31807258  0.23418237    -0.13400
S2969       S  0.73311685  0.29629651  0.23712763    -0.30300
H2970       H  0.74147586  0.30165861  0.21153242     0.11600
S2971       S  0.77948801  0.32889700  0.21583226    -0.27400
H2972       H  0.77136265  0.32273939  0.24051456     0.08800
H2973       H  0.73892851  0.33363173  0.28826909     0.27200
H2974       H  0.72855996  0.29198429  0.22546256     0.22000
H2975       H  0.77288136  0.33409022  0.20554232     0.27300
H2976       H  0.76703314  0.29034019  0.24309129     0.16200
C2977       C  0.75338778  0.11274796  0.18751537    -0.11100
C2978       C  0.74509480  0.10559280  0.18015479     0.15400
C2979       C  0.73805442  0.11174790  0.17058308     0.02300
C2980       C  0.73919014  0.12486539  0.16889715    -0.15500
C2981       C  0.74749283  0.13199887  0.17631319    -0.10300
C2982       C  0.75462934  0.12578039  0.18574363     0.09000
C2983       C  0.74321418  0.09204026  0.18349903     0.10100
S2984       S  0.72760431  0.10339232  0.16012513    -0.24600
H2985       H  0.73369624  0.12951054  0.16161927     0.20300
S2986       S  0.76477208  0.13408583  0.19650017    -0.30300
H2987       H  0.75860858  0.10820069  0.19505231     0.10700
C2988       C  0.75311420  0.08313180  0.18291719     0.03900
C2989       C  0.75084380  0.07050086  0.18637893    -0.12600
C2990       C  0.73884946  0.06654579  0.19025388    -0.08300
C2991       C  0.72902638  0.07551701  0.19105367     0.07300
C2992       C  0.73134014  0.08811809  0.18777463    -0.13400
S2993       S  0.76838939  0.08761419  0.17692010    -0.30300
H2994       H  0.75824361  0.06353062  0.18543772     0.11600
S2995       S  0.71319715  0.07149629  0.19578643    -0.27400
H2996       H  0.72375687  0.09493627  0.18843994     0.08800
H2997       H  0.75608969  0.14385755  0.19865159     0.27200
H2998       H  0.77428422  0.07585218  0.17874867     0.22000
H2999       H  0.71602646  0.06010893  0.20195294     0.27300
H3000       H  0.73419331  0.09187619  0.16048407     0.16200
C3001       C  0.77127147  0.05652563  0.25294050    -0.11100
C3002       C  0.76115133  0.04890969  0.24922789     0.15400
C3003       C  0.75595025  0.04024908  0.25791343     0.02300
C3004       C  0.76087608  0.03952818  0.27010594    -0.15500
C3005       C  0.77119853  0.04690538  0.27380408    -0.10300
C3006       C  0.77647309  0.05551833  0.26505082     0.09000
C3007       C  0.75651520  0.04975667  0.23611315     0.10100
S3008       S  0.74316734  0.02971403  0.25402982    -0.24600
H3009       H  0.75683352  0.03288888  0.27674854     0.20300
S3010       S  0.79016369  0.06500673  0.26826868    -0.30300
H3011       H  0.77536052  0.06306654  0.24622042     0.10700
C3012       C  0.74518950  0.05601248  0.23309375     0.03900
C3013       C  0.74026925  0.05501511  0.22085806    -0.12600
C3014       C  0.74639637  0.04775823  0.21168962    -0.08300
C3015       C  0.75821898  0.04233960  0.21449408     0.07300
C3016       C  0.76312727  0.04333171  0.22668121    -0.13400
S3017       S  0.73678602  0.06479583  0.24496437    -0.30300
H3018       H  0.73128348  0.05925996  0.21860645     0.11600
S3019       S  0.76736393  0.03391252  0.20296565    -0.27400
H3020       H  0.77195503  0.03870641  0.22895280     0.08800
H3021       H  0.79494280  0.05763316  0.27816159     0.27200
H3022       H  0.72688248  0.06888545  0.23713321     0.22000
H3023       H  0.76185402  0.03960915  0.19232141     0.27300
H3024       H  0.74584978  0.02848964  0.24113397     0.16200
C3025       C  0.75850475  0.08353625  0.29978885    -0.11100
C3026       C  0.76841553  0.09227827  0.30082681     0.15400
C3027       C  0.78089098  0.08799176  0.29900928     0.02300
C3028       C  0.78320017  0.07513933  0.29710570    -0.15500
C3029       C  0.77334107  0.06638546  0.29614161    -0.10300
C3030       C  0.76079101  0.07069159  0.29739452     0.09000
C3031       C  0.76564760  0.10547112  0.30492623     0.10100
S3032       S  0.79431462  0.09841291  0.29908758    -0.24600
H3033       H  0.79286154  0.07189772  0.29647627     0.20300
S3034       S  0.74724185  0.06040157  0.29680387    -0.30300
H3035       H  0.74891060  0.08666770  0.30130970     0.10700
C3036       C  0.75780245  0.11364642  0.29787812     0.03900
C3037       C  0.75575116  0.12606026  0.30209833    -0.12600
C3038       C  0.76158429  0.13060812  0.31306944    -0.08300
C3039       C  0.76924580  0.12236732  0.32019773     0.07300
C3040       C  0.77110817  0.10993148  0.31613687    -0.13400
S3041       S  0.75114339  0.10863311  0.28304599    -0.30300
H3042       H  0.75008108  0.13247484  0.29649851     0.11600
S3043       S  0.77681249  0.12716983  0.33458593    -0.27400
H3044       H  0.77697839  0.10367936  0.32172449     0.08800
H3045       H  0.75341125  0.04870768  0.29710399     0.27200
H3046       H  0.74467543  0.11990046  0.28027302     0.22000
H3047       H  0.76719945  0.13555164  0.33819221     0.27300
H3048       H  0.78783645  0.10900977  0.29436602     0.16200
C3049       C  0.72269945  0.97743878  0.20786266    -0.11100
C3050       C  0.72948320  0.98371397  0.21727377     0.15400
C3051       C  0.73113542  0.97776553  0.22911141     0.02300
C3052       C  0.72564420  0.96587914  0.23133521    -0.15500
C3053       C  0.71868281  0.95971137  0.22190991    -0.10300
C3054       C  0.71745122  0.96555123  0.20994294     0.09000
C3055       C  0.73371739  0.99678543  0.21439455     0.10100
S3056       S  0.73997986  0.98488582  0.24172589    -0.24600
H3057       H  0.72659950  0.96153482  0.24054581     0.20300
S3058       S  0.70939225  0.95841876  0.19676748    -0.30300
H3059       H  0.72136879  0.98194603  0.19876697     0.10700
C3060       C  0.74219785  0.99915693  0.20445044     0.03900
C3061       C  0.74324227  0.01140668  0.19949163    -0.12600
C3062       C  0.73612612  0.02142272  0.20437492    -0.08300
C3063       C  0.72835525  0.01921344  0.21498185     0.07300
C3064       C  0.72735037  0.00695731  0.21994492    -0.13400
S3065       S  0.75123844  0.98642002  0.19768974    -0.30300
H3066       H  0.74917094  0.01310170  0.19136440     0.11600
S3067       S  0.71859003  0.03124021  0.22194613    -0.27400
H3068       H  0.72076853  0.00516556  0.22754107     0.08800
H3069       H  0.71156345  0.94580752  0.20023991     0.27200
H3070       H  0.75806084  0.99382830  0.18904935     0.22000
H3071       H  0.71616387  0.03798309  0.21079494     0.27300
H3072       H  0.74783559  0.99227458  0.23401332     0.16200
C3073       C  0.69729182  0.89827501  0.24643849    -0.11100
C3074       C  0.70284042  0.88933376  0.23846245     0.15400
C3075       C  0.71130056  0.89349328  0.22902377     0.02300
C3076       C  0.71331596  0.90647990  0.22722071    -0.15500
C3077       C  0.70717598  0.91541519  0.23476160    -0.10300
C3078       C  0.69944512  0.91123038  0.24474524     0.09000
C3079       C  0.69886171  0.87591105  0.23966384     0.10100
S3080       S  0.71944447  0.88272172  0.21873445    -0.24600
H3081       H  0.71923227  0.90964516  0.21951855     0.20300
S3082       S  0.69207578  0.92245159  0.25519435    -0.30300
H3083       H  0.69091002  0.89508140  0.25373229     0.10700
C3084       C  0.70170692  0.86867811  0.25047117     0.03900
C3085       C  0.69769286  0.85606652  0.25119727    -0.12600
C3086       C  0.69076543  0.85045573  0.24138401    -0.08300
C3087       C  0.68737965  0.85797528  0.23085133     0.07300
C3088       C  0.69159725  0.87049807  0.23003727    -0.13400
S3089       S  0.71102973  0.87528595  0.26307018    -0.30300
H3090       H  0.70043190  0.85039660  0.25925348     0.11600
S3091       S  0.67734086  0.85235497  0.21837675    -0.27400
H3092       H  0.68903488  0.87615769  0.22189972     0.08800
H3093       H  0.68617279  0.91357403  0.26310400     0.27200
H3094       H  0.70995889  0.86498782  0.27140464     0.22000
H3095       H  0.66979626  0.84482870  0.22629610     0.27300
H3096       H  0.71980955  0.87254363  0.22727170     0.16200
C3097       C  0.79917098  0.97895628  0.28006273    -0.11100
C3098       C  0.79130403  0.98437196  0.27092928     0.15400
C3099       C  0.78893469  0.97772221  0.25964880     0.02300
C3100       C  0.79485192  0.96600845  0.25763747    -0.15500
C3101       C  0.80299600  0.96074534  0.26670755    -0.10300
C3102       C  0.80494457  0.96727802  0.27815923     0.09000
C3103       C  0.78650784  0.99726728  0.27350885     0.10100
S3104       S  0.77887281  0.98380280  0.24733448    -0.24600
H3105       H  0.79336138  0.96113893  0.24880218     0.20300
S3106       S  0.81469360  0.96134166  0.29082415    -0.30300
H3107       H  0.80094875  0.98399090  0.28876088     0.10700
C3108       C  0.77616819  0.99919055  0.28158818     0.03900
C3109       C  0.77386762  0.01129018  0.28647700    -0.12600
C3110       C  0.78173438  0.02151441  0.28346210    -0.08300
C3111       C  0.79170957  0.01965750  0.27486192     0.07300
C3112       C  0.79388046  0.00762341  0.26986048    -0.13400
S3113       S  0.76632795  0.98605906  0.28613757    -0.30300
H3114       H  0.76624657  0.01271109  0.29309449     0.11600
S3115       S  0.80273497  0.03191271  0.27084745    -0.27400
H3116       H  0.80196613  0.00612513  0.26382119     0.08800
H3117       H  0.81305836  0.94846350  0.28823885     0.27200
H3118       H  0.75782527  0.99303102  0.29351640     0.22000
H3119       H  0.80363454  0.03678072  0.28312133     0.27300
H3120       H  0.77186100  0.99213284  0.25483703     0.16200
C3121       C  0.77025513  0.93709522  0.26090421    -0.11100
C3122       C  0.76750178  0.93233232  0.24884898     0.15400
C3123       C  0.77763661  0.92796013  0.24132228     0.02300
C3124       C  0.79005209  0.92968389  0.24539335    -0.15500
C3125       C  0.79274865  0.93471625  0.25728965    -0.10300
C3126       C  0.78264333  0.93758254  0.26543124     0.09000
C3127       C  0.75426023  0.93288726  0.24399105     0.10100
S3128       S  0.77547034  0.91991673  0.22652015    -0.24600
H3129       H  0.79771215  0.92713214  0.23917404     0.20300
S3130       S  0.78491823  0.94121633  0.28182542    -0.30300
H3131       H  0.76271899  0.94042809  0.26690014     0.10700
C3132       C  0.74381557  0.92829724  0.25092568     0.03900
C3133       C  0.73158646  0.92978564  0.24602437    -0.12600
C3134       C  0.72954149  0.93476428  0.23390120    -0.08300
C3135       C  0.74010341  0.93816373  0.22656897     0.07300
C3136       C  0.75209788  0.93810013  0.23198228    -0.13400
S3137       S  0.74590295  0.92000514  0.26569898    -0.30300
H3138       H  0.72355105  0.92704473  0.25165254     0.11600
S3139       S  0.73913576  0.94137645  0.20994035    -0.27400
H3140       H  0.75993891  0.94161906  0.22648128     0.08800
H3141       H  0.79612997  0.93422478  0.28297407     0.27200
H3142       H  0.73324467  0.91647127  0.26737413     0.22000
H3143       H  0.72874968  0.93338887  0.20800292     0.27300
H3144       H  0.76383724  0.91445412  0.22974459     0.16200
C3145       C  0.83018968  0.87079026  0.26376636    -0.11100
C3146       C  0.82267860  0.87624858  0.25429024     0.15400
C3147       C  0.81882004  0.86873430  0.24403812     0.02300
C3148       C  0.82253832  0.85606660  0.24345406    -0.15500
C3149       C  0.82984249  0.85048072  0.25303404    -0.10300
C3150       C  0.83383641  0.85805536  0.26323755     0.09000
C3151       C  0.81977669  0.88997700  0.25486121     0.10100
S3152       S  0.80883458  0.87464897  0.23157964    -0.24600
H3153       H  0.81920767  0.85036888  0.23567460     0.20300
S3154       S  0.84397268  0.85221148  0.27558473    -0.30300
H3155       H  0.83342252  0.87657126  0.27152448     0.10700
C3156       C  0.81156399  0.89506323  0.26398620     0.03900
C3157       C  0.80964457  0.90820343  0.26448480    -0.12600
C3158       C  0.81578568  0.91635120  0.25603487    -0.08300
C3159       C  0.82344231  0.91112993  0.24647498     0.07300
C3160       C  0.82544672  0.89808111  0.24607688    -0.13400
S3161       S  0.80362828  0.88483031  0.27505156    -0.30300
H3162       H  0.80383444  0.91219931  0.27184031     0.11600
S3163       S  0.83097048  0.92062565  0.23452333    -0.27400
H3164       H  0.83157685  0.89419938  0.23890596     0.08800
H3165       H  0.85078617  0.84394024  0.26779436     0.27200
H3166       H  0.79661329  0.89430889  0.28109465     0.22000
H3167       H  0.82197865  0.93038066  0.23460324     0.27300
H3168       H  0.80224359  0.88339599  0.23901775     0.16200
C3169       C  0.78790721  0.29857650  0.09599918    -0.11100
C3170       C  0.77513854  0.29794562  0.09923049     0.15400
C3171       C  0.76624220  0.29511192  0.08971103     0.02300
C3172       C  0.77030738  0.29339240  0.07719923    -0.15500
C3173       C  0.78312627  0.29421475  0.07397017    -0.10300
C3174       C  0.79201530  0.29654995  0.08367574     0.09000
C3175       C  0.77170774  0.30067301  0.11257770     0.10100
S3176       S  0.74962952  0.29369950  0.09287540    -0.24600
H3177       H  0.76337906  0.29173446  0.06989308     0.20300
S3178       S  0.80883652  0.29702383  0.08118880    -0.30300
H3179       H  0.79480697  0.30069303  0.10322460     0.10700
C3180       C  0.77640260  0.29311967  0.12250960     0.03900
C3181       C  0.77479031  0.29701562  0.13502209    -0.12600
C3182       C  0.76830933  0.30818014  0.13796485    -0.08300
C3183       C  0.76314693  0.31549689  0.12805402     0.07300
C3184       C  0.76493313  0.31169655  0.11549163    -0.13400
S3185       S  0.78421546  0.27831658  0.11926609    -0.30300
H3186       H  0.77841064  0.29119795  0.14262078     0.11600
S3187       S  0.75474021  0.33002088  0.13077480    -0.27400
H3188       H  0.76139340  0.31760198  0.10791684     0.08800
H3189       H  0.80908742  0.28893583  0.07075769     0.27200
H3190       H  0.78639587  0.27477993  0.13187066     0.22000
H3191       H  0.76153206  0.33349025  0.14160453     0.27300
H3192       H  0.75089406  0.28973057  0.10546802     0.16200
C3193       C  0.74137079  0.23996475  0.05368433    -0.11100
C3194       C  0.75459243  0.23990198  0.05350542     0.15400
C3195       C  0.76092898  0.22810922  0.05376769     0.02300
C3196       C  0.75397449  0.21689035  0.05436266    -0.15500
C3197       C  0.74079553  0.21699974  0.05380853    -0.10300
C3198       C  0.73443859  0.22874270  0.05339382     0.09000
C3199       C  0.76145904  0.25221146  0.05323347     0.10100
S3200       S  0.77779133  0.22659206  0.05239655    -0.24600
H3201       H  0.75887537  0.20791708  0.05431322     0.20300
S3202       S  0.71756567  0.23023731  0.05218101    -0.30300
H3203       H  0.73636840  0.24888277  0.05377757     0.10700
C3204       C  0.75905408  0.26152933  0.04393163     0.03900
C3205       C  0.76588299  0.27287498  0.04408741    -0.12600
C3206       C  0.77586473  0.27474646  0.05256058    -0.08300
C3207       C  0.77854554  0.26519519  0.06151682     0.07300
C3208       C  0.77088006  0.25448522  0.06223513    -0.13400
S3209       S  0.74807720  0.25870707  0.03121077    -0.30300
H3210       H  0.76387716  0.28013673  0.03717578     0.11600
S3211       S  0.79243165  0.26528250  0.07121886    -0.27400
H3212       H  0.77283675  0.24743624  0.06939830     0.08800
H3213       H  0.71461907  0.21803221  0.05624131     0.27200
H3214       H  0.75028504  0.26999388  0.02454988     0.22000
H3215       H  0.80013814  0.27039724  0.06171987     0.27300
H3216       H  0.77932400  0.23703540  0.04432517     0.16200
C3217       C  0.73860036  0.17408492  0.11550237    -0.11100
C3218       C  0.74829259  0.18148451  0.11037091     0.15400
C3219       C  0.75896800  0.18418107  0.11782603     0.02300
C3220       C  0.75947621  0.17980193  0.13031936    -0.15500
C3221       C  0.74949782  0.17288587  0.13569626    -0.10300
C3222       C  0.73914719  0.16963497  0.12795105     0.09000
C3223       C  0.74674335  0.18624958  0.09728009     0.10100
S3224       S  0.77216026  0.19330529  0.11214123    -0.24600
H3225       H  0.76750366  0.18236829  0.13607413     0.20300
S3226       S  0.72649899  0.15959445  0.13323097    -0.30300
H3227       H  0.73052368  0.17173155  0.10971810     0.10700
C3228       C  0.75158815  0.17962970  0.08687590     0.03900
C3229       C  0.74829101  0.18347128  0.07461489    -0.12600
C3230       C  0.74002925  0.19366462  0.07250062    -0.08300
C3231       C  0.73559924  0.20053285  0.08299110     0.07300
C3232       C  0.73915132  0.19689307  0.09520214    -0.13400
S3233       S  0.76127464  0.16580564  0.08925137    -0.30300
H3234       H  0.75158066  0.17807211  0.06662195     0.11600
S3235       S  0.72415659  0.21293158  0.08158090    -0.27400
H3236       H  0.73531257  0.20191501  0.10320792     0.08800
H3237       H  0.73412526  0.15203255  0.14106483     0.27200
H3238       H  0.76278716  0.16278242  0.07644563     0.22000
H3239       H  0.71592370  0.20551889  0.07432695     0.27300
H3240       H  0.76591720  0.19971710  0.10236453     0.16200
C3241       C  0.80612190  0.26375378  0.98842210    -0.11100
C3242       C  0.79450276  0.26989388  0.98997834     0.15400
C3243       C  0.78731839  0.27274945  0.97904668     0.02300
C3244       C  0.79231740  0.27033805  0.96702486    -0.15500
C3245       C  0.80413284  0.26454723  0.96552477    -0.10300
C3246       C  0.81074816  0.26066696  0.97647307     0.09000
C3247       C  0.79100958  0.27441982  0.00289696     0.10100
S3248       S  0.77178034  0.27959376  0.97973408    -0.24600
H3249       H  0.78707671  0.27339542  0.95880724     0.20300
S3250       S  0.82516381  0.25166728  0.97591198    -0.30300
H3251       H  0.81181396  0.26151903  0.99661107     0.10700
C3252       C  0.79118953  0.26641902  0.01362647     0.03900
C3253       C  0.79012812  0.27165275  0.02578016    -0.12600
C3254       C  0.78802038  0.28463798  0.02748548    -0.08300
C3255       C  0.78646914  0.29233408  0.01663547     0.07300
C3256       C  0.78852432  0.28730599  0.00463808    -0.13400
S3257       S  0.79258785  0.24951874  0.01191065    -0.30300
H3258       H  0.79128445  0.26564192  0.03396261     0.11600
S3259       S  0.78161035  0.30864007  0.01736312    -0.27400
H3260       H  0.78824049  0.29358015  0.99655873     0.08800
H3261       H  0.82225573  0.24542984  0.96459732     0.27200
H3262       H  0.79103471  0.24645261  0.02472155     0.22000
H3263       H  0.77427892  0.30718054  0.02831110     0.27300
H3264       H  0.76866391  0.27448074  0.99157456     0.16200
C3265       C  0.81660689  0.26883715  0.89727770    -0.11100
C3266       C  0.81423612  0.25678124  0.89246805     0.15400
C3267       C  0.81014227  0.24718144  0.90082730     0.02300
C3268       C  0.80909627  0.24974030  0.91380841    -0.15500
C3269       C  0.81198568  0.26172784  0.91865676    -0.10300
C3270       C  0.81546129  0.27145116  0.91012521     0.09000
C3271       C  0.81694825  0.25461852  0.87884883     0.10100
S3272       S  0.80646005  0.23144755  0.89558264    -0.24600
H3273       H  0.80653029  0.24218488  0.92021588     0.20300
S3274       S  0.81894569  0.28742562  0.91489161    -0.30300
H3275       H  0.81968069  0.27627113  0.89094460     0.10700
C3276       C  0.80999378  0.26085194  0.86934967     0.03900
C3277       C  0.81390126  0.26004161  0.85672696    -0.12600
C3278       C  0.82457597  0.25300261  0.85326643    -0.08300
C3279       C  0.83142375  0.24659374  0.86277868     0.07300
C3280       C  0.82752113  0.24742608  0.87540951    -0.13400
S3281       S  0.79594207  0.26961901  0.87328815    -0.30300
H3282       H  0.80846587  0.26473267  0.84944695     0.11600
S3283       S  0.84557642  0.23779687  0.85951192    -0.27400
H3284       H  0.83303893  0.24280287  0.88268026     0.08800
H3285       H  0.81202080  0.28732803  0.92613132     0.27200
H3286       H  0.79283173  0.27334913  0.86093575     0.22000
H3287       H  0.84962604  0.24557264  0.84953588     0.27300
H3288       H  0.80310300  0.23482190  0.88320398     0.16200
C3289       C  0.71796915  0.23214060  0.98741753    -0.11100
C3290       C  0.72517418  0.22157658  0.99087665     0.15400
C3291       C  0.72947308  0.21328409  0.98137625     0.02300
C3292       C  0.72610903  0.21552142  0.96878766    -0.15500
C3293       C  0.71803630  0.22549156  0.96553031    -0.10300
C3294       C  0.71425656  0.23413236  0.97490637     0.09000
C3295       C  0.72613722  0.21835103  0.00446051     0.10100
S3296       S  0.73824663  0.19906775  0.98475209    -0.24600
H3297       H  0.72886670  0.20877268  0.96164714     0.20300
S3298       S  0.70398917  0.24739193  0.97179546    -0.30300
H3299       H  0.71458266  0.23848018  0.99465889     0.10700
C3300       C  0.73759205  0.21855680  0.01117558     0.03900
C3301       C  0.73799376  0.21373442  0.02354860    -0.12600
C3302       C  0.72710287  0.20892254  0.02938579    -0.08300
C3303       C  0.71548163  0.20961713  0.02286388     0.07300
C3304       C  0.71517407  0.21424796  0.01053621    -0.13400
S3305       S  0.75170591  0.22460818  0.00388150    -0.30300
H3306       H  0.74693517  0.21308102  0.02839503     0.11600
S3307       S  0.70067073  0.20439620  0.02941765    -0.27400
H3308       H  0.70631529  0.21427668  0.00544752     0.08800
H3309       H  0.70469816  0.24736225  0.95859776     0.27200
H3310       H  0.75934890  0.22398032  0.01470652     0.22000
H3311       H  0.70401364  0.20529635  0.04215817     0.27300
H3312       H  0.73233016  0.19624252  0.99625826     0.16200
C3313       C  0.75097526  0.23046321  0.93272795    -0.11100
C3314       C  0.75430392  0.24166855  0.93892782     0.15400
C3315       C  0.74494255  0.24847472  0.94546773     0.02300
C3316       C  0.73259045  0.24394902  0.94570078    -0.15500
C3317       C  0.72929849  0.23255739  0.93986903    -0.10300
C3318       C  0.73865012  0.22572294  0.93332992     0.09000
C3319       C  0.76760466  0.24595382  0.93873431     0.10100
S3320       S  0.74820927  0.26276621  0.95406781    -0.24600
H3321       H  0.72551093  0.24918103  0.95081278     0.20300
S3322       S  0.73567143  0.21060448  0.92623439    -0.30300
H3323       H  0.75813701  0.22516378  0.92775408     0.10700
C3324       C  0.77695074  0.23973434  0.94589869     0.03900
C3325       C  0.78917039  0.24476293  0.94638029    -0.12600
C3326       C  0.79218688  0.25603676  0.94009354    -0.08300
C3327       C  0.78275985  0.26229428  0.93304888     0.07300
C3328       C  0.77069071  0.25705722  0.93219992    -0.13400
S3329       S  0.77312679  0.22584314  0.95504373    -0.30300
H3330       H  0.79638663  0.24011668  0.95192012     0.11600
S3331       S  0.78521126  0.27753557  0.92598160    -0.27400
H3332       H  0.76345173  0.26201204  0.92693684     0.08800
H3333       H  0.72649319  0.20672624  0.93495638     0.27200
H3334       H  0.78512262  0.22409893  0.96041180     0.22000
H3335       H  0.79264913  0.28205764  0.93595645     0.27300
H3336       H  0.76039874  0.25933294  0.95797661     0.16200
C3337       C  0.70587909  0.24061760  0.90083382    -0.11100
C3338       C  0.70275531  0.23015551  0.89335292     0.15400
C3339       C  0.70301318  0.21798462  0.89884029     0.02300
C3340       C  0.70580306  0.21663986  0.91166998    -0.15500
C3341       C  0.70815568  0.22715954  0.91933477    -0.10300
C3342       C  0.70830748  0.23929777  0.91377538     0.09000
C3343       C  0.69911269  0.23224777  0.87995534     0.10100
S3344       S  0.69921517  0.20384905  0.89020943    -0.24600
H3345       H  0.70545444  0.20731321  0.91589512     0.20300
S3346       S  0.71059110  0.25354568  0.92271673    -0.30300
H3347       H  0.70584745  0.24996828  0.89665733     0.10700
C3348       C  0.68798172  0.23880215  0.87662389     0.03900
C3349       C  0.68501950  0.24074330  0.86382015    -0.12600
C3350       C  0.69279864  0.23598087  0.85427210    -0.08300
C3351       C  0.70387902  0.22935390  0.85768687     0.07300
C3352       C  0.70689354  0.22755518  0.87040584    -0.13400
S3353       S  0.67725465  0.24418047  0.88866851    -0.30300
H3354       H  0.67650359  0.24574235  0.86121663     0.11600
S3355       S  0.71490230  0.22355385  0.84620977    -0.27400
H3356       H  0.71547487  0.22258656  0.87289520     0.08800
H3357       H  0.70432140  0.24943398  0.93363257     0.27200
H3358       H  0.66823745  0.24947765  0.88049336     0.22000
H3359       H  0.71506119  0.23499644  0.83950393     0.27300
H3360       H  0.69019547  0.20944081  0.88224773     0.16200
C3361       C  0.81289790  0.24935304  0.58718762    -0.11100
C3362       C  0.81866142  0.23980050  0.59445306     0.15400
C3363       C  0.82291363  0.22879934  0.58831580     0.02300
C3364       C  0.82118256  0.22747295  0.57532288    -0.15500
C3365       C  0.81576906  0.23708907  0.56792045    -0.10300
C3366       C  0.81161799  0.24822018  0.57396907     0.09000
C3367       C  0.82000489  0.24123889  0.60841142     0.10100
S3368       S  0.83120915  0.21631765  0.59643892    -0.24600
H3369       H  0.82460825  0.21897074  0.57082118     0.20300
S3370       S  0.80564636  0.26137633  0.56491659    -0.30300
H3371       H  0.80969995  0.25782909  0.59186990     0.10700
C3372       C  0.82834076  0.25006626  0.61384522     0.03900
C3373       C  0.83009031  0.25022367  0.62702621    -0.12600
C3374       C  0.82380003  0.24163643  0.63498034    -0.08300
C3375       C  0.81514697  0.23307931  0.62946944     0.07300
C3376       C  0.81345421  0.23292266  0.61635966    -0.13400
S3377       S  0.83727232  0.26068390  0.60395844    -0.30300
H3378       H  0.83663927  0.25686442  0.63113563     0.11600
S3379       S  0.80556880  0.22240446  0.63860181    -0.27400
H3380       H  0.80696066  0.22619141  0.61227419     0.08800
H3381       H  0.80168423  0.26867385  0.57522634     0.27200
H3382       H  0.84417297  0.26645131  0.61367824     0.22000
H3383       H  0.80274663  0.23129540  0.64800432     0.27300
H3384       H  0.83755205  0.22423460  0.60494717     0.16200
C3385       C  0.74582279  0.23747495  0.55450686    -0.11100
C3386       C  0.75456038  0.24742829  0.55455420     0.15400
C3387       C  0.75003946  0.26000775  0.55452849     0.02300
C3388       C  0.73712222  0.26229724  0.55333902    -0.15500
C3389       C  0.72849496  0.25234146  0.55264063    -0.10300
C3390       C  0.73286769  0.23980231  0.55360782     0.09000
C3391       C  0.76814034  0.24446021  0.55272146     0.10100
S3392       S  0.76025754  0.27354247  0.55576021    -0.24600
H3393       H  0.73372284  0.27192562  0.55273051     0.20300
S3394       S  0.72248052  0.22638954  0.55289354    -0.30300
H3395       H  0.74914548  0.22780253  0.55442189     0.10700
C3396       C  0.77495611  0.23650020  0.56096873     0.03900
C3397       C  0.78751078  0.23337554  0.55813234    -0.12600
C3398       C  0.79373066  0.23877711  0.54773504    -0.08300
C3399       C  0.78705963  0.24745456  0.54005856     0.07300
C3400       C  0.77428262  0.24963013  0.54221665    -0.13400
S3401       S  0.76794046  0.23079786  0.57539292    -0.30300
H3402       H  0.79255749  0.22681632  0.56412013     0.11600
S3403       S  0.79448661  0.25708867  0.52822499    -0.27400
H3404       H  0.76918146  0.25587264  0.53590337     0.08800
H3405       H  0.71364791  0.23187028  0.54466107     0.27200
H3406       H  0.77913184  0.22615867  0.58081602     0.22000
H3407       H  0.80577108  0.25843308  0.53502406     0.27300
H3408       H  0.76986160  0.26731870  0.56249049     0.16200
C3409       C  0.69628518  0.23642898  0.61718832    -0.11100
C3410       C  0.69694579  0.24795864  0.61068472     0.15400
C3411       C  0.69329595  0.25906977  0.61707692     0.02300
C3412       C  0.69008078  0.25852275  0.62990374    -0.15500
C3413       C  0.68972314  0.24702238  0.63662318    -0.10300
C3414       C  0.69267223  0.23577612  0.62990520     0.09000
C3415       C  0.70068929  0.24796128  0.59708209     0.10100
S3416       S  0.69201875  0.27420676  0.60932391    -0.24600
H3417       H  0.68764931  0.26724219  0.63461382     0.20300
S3418       S  0.69182065  0.22016591  0.63665003    -0.30300
H3419       H  0.69867167  0.22779333  0.61228914     0.10700
C3420       C  0.71116066  0.25480995  0.59247553     0.03900
C3421       C  0.71304540  0.25596981  0.57936914    -0.12600
C3422       C  0.70501203  0.24994144  0.57075592    -0.08300
C3423       C  0.69551708  0.24184332  0.57548151     0.07300
C3424       C  0.69333825  0.24111423  0.58851549    -0.13400
S3425       S  0.72213805  0.26204986  0.60324969    -0.30300
H3426       H  0.72042351  0.26206308  0.57585303     0.11600
S3427       S  0.68613441  0.23231430  0.56495320    -0.27400
H3428       H  0.68561584  0.23546340  0.59205835     0.08800
H3429       H  0.70088093  0.22258508  0.64595897     0.27200
H3430       H  0.73072451  0.26628761  0.59407762     0.22000
H3431       H  0.67955734  0.22557293  0.57430033     0.27300
H3432       H  0.68855795  0.26944771  0.59746822     0.16200
C3433       C  0.74431204  0.28370760  0.49083090    -0.11100
C3434       C  0.73582012  0.27358869  0.49153554     0.15400
C3435       C  0.73120693  0.26833768  0.48016009     0.02300
C3436       C  0.73491317  0.27351378  0.46850652    -0.15500
C3437       C  0.74268293  0.28421243  0.46789768    -0.10300
C3438       C  0.74768531  0.28912888  0.47921706     0.09000
C3439       C  0.73079600  0.27000396  0.50421100     0.10100
S3440       S  0.71977978  0.25575869  0.47981388    -0.24600
H3441       H  0.73087716  0.26979955  0.45990404     0.20300
S3442       S  0.75814229  0.30258517  0.47897461    -0.30300
H3443       H  0.74783670  0.28774473  0.49950191     0.10700
C3444       C  0.73292204  0.25810239  0.50989755     0.03900
C3445       C  0.72700313  0.25513760  0.52145315    -0.12600
C3446       C  0.71932595  0.26400179  0.52762564    -0.08300
C3447       C  0.71818126  0.27624666  0.52240539     0.07300
C3448       C  0.72367992  0.27901178  0.51074746    -0.13400
S3449       S  0.74320923  0.24677532  0.50250979    -0.30300
H3450       H  0.72803182  0.24579208  0.52548135     0.11600
S3451       S  0.70994080  0.28886120  0.53025649    -0.27400
H3452       H  0.72234292  0.28831745  0.50667803     0.08800
H3453       H  0.76100077  0.30258928  0.49191853     0.27200
H3454       H  0.74273913  0.23768062  0.51219172     0.22000
H3455       H  0.71266836  0.28465732  0.54255397     0.27300
H3456       H  0.71340269  0.25921301  0.49087354     0.16200
C3457       C  0.74080400  0.29457998  0.37319871    -0.11100
C3458       C  0.74765409  0.30217100  0.38155122     0.15400
C3459       C  0.75515804  0.31203923  0.37657244     0.02300
C3460       C  0.75570785  0.31398768  0.36347531    -0.15500
C3461       C  0.74858556  0.30658814  0.35514904    -0.10300
C3462       C  0.74118572  0.29664425  0.36015679     0.09000
C3463       C  0.74670920  0.29958393  0.39535429     0.10100
S3464       S  0.76393690  0.32271844  0.38642496    -0.24600
H3465       H  0.76144712  0.32159876  0.35978094     0.20300
S3466       S  0.73244943  0.28584789  0.35041338    -0.30300
H3467       H  0.73517145  0.28688422  0.37688935     0.10700
C3468       C  0.73531087  0.30143446  0.40190703     0.03900
C3469       C  0.73493701  0.29959074  0.41500577    -0.12600
C3470       C  0.74573907  0.29614903  0.42189511    -0.08300
C3471       C  0.75711631  0.29410638  0.41526853     0.07300
C3472       C  0.75740527  0.29558813  0.40209729    -0.13400
S3473       S  0.72139018  0.30695451  0.39374956    -0.30300
H3474       H  0.72623112  0.30127428  0.42003195     0.11600
S3475       S  0.77177742  0.29066367  0.42305897    -0.27400
H3476       H  0.76618970  0.29415455  0.39711339     0.08800
H3477       H  0.74194700  0.28472417  0.34129723     0.27200
H3478       H  0.71339723  0.30735796  0.40430116     0.22000
H3479       H  0.76965856  0.29911579  0.43300176     0.27300
H3480       H  0.75541276  0.32260236  0.39655449     0.16200
C3481       C  0.80127334  0.20805846  0.47967960    -0.11100
C3482       C  0.79192202  0.21466715  0.48628616     0.15400
C3483       C  0.77986462  0.21594138  0.48066859     0.02300
C3484       C  0.77723228  0.20978484  0.46920440    -0.15500
C3485       C  0.78653012  0.20280810  0.46285463    -0.10300
C3486       C  0.79881001  0.20240887  0.46802385     0.09000
C3487       C  0.79544102  0.22031229  0.49873197     0.10100
S3488       S  0.76748959  0.22533580  0.48752166    -0.24600
H3489       H  0.76780044  0.21027463  0.46534728     0.20300
S3490       S  0.81187486  0.19503495  0.46006419    -0.30300
H3491       H  0.81066267  0.20733917  0.48363640     0.10700
C3492       C  0.79045210  0.21598208  0.51033066     0.03900
C3493       C  0.79527816  0.22071092  0.52179811    -0.12600
C3494       C  0.80528945  0.22939263  0.52197475    -0.08300
C3495       C  0.81006118  0.23386141  0.51028697     0.07300
C3496       C  0.80507571  0.22933864  0.49894856    -0.13400
S3497       S  0.77874707  0.20363818  0.51059987    -0.30300
H3498       H  0.79178626  0.21704672  0.53066335     0.11600
S3499       S  0.82277939  0.24510581  0.50896389    -0.27400
H3500       H  0.80901861  0.23265669  0.49012025     0.08800
H3501       H  0.80753646  0.19771063  0.44780747     0.27200
H3502       H  0.77829637  0.20213278  0.52376696     0.22000
H3503       H  0.82125168  0.25076205  0.52078637     0.27300
H3504       H  0.77537375  0.23361368  0.49418316     0.16200
C3505       C  0.76677606  0.25751288  0.44607277    -0.11100
C3506       C  0.76120063  0.25001285  0.43674547     0.15400
C3507       C  0.75118511  0.25511975  0.42953721     0.02300
C3508       C  0.74662662  0.26723398  0.43228698    -0.15500
C3509       C  0.75225367  0.27469687  0.44164059    -0.10300
C3510       C  0.76281593  0.26987540  0.44821401     0.09000
C3511       C  0.76544340  0.23666012  0.43568278     0.10100
S3512       S  0.74398820  0.24680248  0.41661072    -0.24600
H3513       H  0.73866155  0.27090953  0.42705198     0.20300
S3514       S  0.77217825  0.27906605  0.45896760    -0.30300
H3515       H  0.77441917  0.25372408  0.45171316     0.10700
C3516       C  0.77832489  0.23350389  0.43444041     0.03900
C3517       C  0.78215664  0.22094397  0.43612974    -0.12600
C3518       C  0.77335174  0.21133257  0.43817945    -0.08300
C3519       C  0.76042710  0.21435163  0.43865736     0.07300
C3520       C  0.75662377  0.22695611  0.43753188    -0.13400
S3521       S  0.78989881  0.24538419  0.43053095    -0.30300
H3522       H  0.79205801  0.21853525  0.43594328     0.11600
S3523       S  0.74842011  0.20266034  0.44142974    -0.27400
H3524       H  0.74674982  0.22926943  0.43866486     0.08800
H3525       H  0.76921378  0.29090684  0.45379202     0.27200
H3526       H  0.80025705  0.23716276  0.42950901     0.22000
H3527       H  0.75583022  0.19446748  0.44877172     0.27300
H3528       H  0.75474800  0.23976784  0.41339913     0.16200
C3529       C  0.77640163  0.19088102  0.39722684    -0.11100
C3530       C  0.76713958  0.18191011  0.39421682     0.15400
C3531       C  0.76051901  0.17600951  0.40419315     0.02300
C3532       C  0.76318495  0.17928640  0.41673062    -0.15500
C3533       C  0.77276123  0.18791536  0.41978035    -0.10300
C3534       C  0.77950508  0.19368738  0.40979650     0.09000
C3535       C  0.76534633  0.17827417  0.38070165     0.10100
S3536       S  0.74920436  0.16357579  0.40168265    -0.24600
H3537       H  0.75823409  0.17445595  0.42426074     0.20300
S3538       S  0.79294878  0.20373813  0.41226752    -0.30300
H3539       H  0.78172122  0.19527677  0.38968753     0.10700
C3540       C  0.75408236  0.18071770  0.37404869     0.03900
C3541       C  0.75294591  0.17695366  0.36135956    -0.12600
C3542       C  0.76290909  0.17094631  0.35495103    -0.08300
C3543       C  0.77414549  0.16841629  0.36177554     0.07300
C3544       C  0.77523900  0.17217411  0.37441047    -0.13400
S3545       S  0.74141411  0.18930199  0.38147006    -0.30300
H3546       H  0.74440457  0.17919789  0.35624622     0.11600
S3547       S  0.78740228  0.16018476  0.35512490    -0.27400
H3548       H  0.78388657  0.17016863  0.37947344     0.08800
H3549       H  0.79736339  0.19760064  0.42317108     0.27200
H3550       H  0.73282114  0.18847989  0.37141282     0.22000
H3551       H  0.77999039  0.15173904  0.34818274     0.27300
H3552       H  0.75494134  0.15853667  0.39088261     0.16200
loop_ 
_geom_bond_atom_site_label_1 
_geom_bond_atom_site_label_2 
_geom_bond_distance 
_geom_bond_site_symmetry_2 
_ccdc_geom_bond_type 
N1            C5   1.361       .  A
N1            C2   1.362       .  A
N1         C3518   1.436       .  S
C2            C3   1.383       .  A
C2         C3533   1.494       .  S
C3            C4   1.377       .  A
C3            H6   1.082       .  S
C4            C5   1.383       .  A
C4            H7   1.082       .  S
C5         C3485   1.496       .  S
N8           C12   1.365       .  A
N8            C9   1.365       .  A
N8         C3509   1.443       .  S
C9           C10   1.383       .  A
C9         C3470   1.494       .  S
C10          C11   1.373       .  A
C10          H13   1.082       .  S
C11          C12   1.382       .  A
C11          H14   1.082       .  S
C12        C3437   1.493       .  S
N15          C19   1.360       .  A
N15          C16   1.362       .  A
N15        C3389   1.436       .  S
C16          C17   1.385       .  A
C16        C3422   1.495       .  S
C17          C18   1.375       .  A
C17          H20   1.082       .  S
C18          C19   1.381       .  A
C18          H21   1.082       .  S
C19        C3446   1.493       .  S
N22          C26   1.369       .  A
N22          C23   1.369       .  A
N22        C3398   1.448       .  S
C23          C24   1.383       .  A
C23        C3365   1.499       .  S
C24          C25   1.370       .  A
C24          H27   1.082       .  S
C25          C26   1.382       .  A
C25          H28   1.082       .  S
C26        C3494   1.498       .  S
N29          C33   1.357       .  A
N29          C30   1.361       .  A
N29        C3317   1.442       .  S
C30          C31   1.383       .  A
C30        C3341   1.482       .  S
C31          C32   1.373       .  A
C31          H34   1.082       .  S
C32          C33   1.379       .  A
C32          H35   1.082       .  S
C33        C3293   1.477       .  S
N36          C40   1.364       .  A
N36          C37   1.363       .  A
N36        C3326   1.443       .  S
C37          C38   1.382       .  A
C37        C3269   1.491       .  S
C38          C39   1.372       .  A
C38          H41   1.082       .  S
C39          C40   1.384       .  A
C39          H42   1.082       .  S
C40        C3245   1.496       .  S
N43          C47   1.361       .  A
N43          C44   1.363       .  A
N43        C3197   1.442       .  S
C44          C45   1.383       .  A
C44        C3230   1.489       .  S
C45          C46   1.372       .  A
C45          H48   1.082       .  S
C46          C47   1.382       .  A
C46          H49   1.082       .  S
C47        C3302   1.486       .  S
N50          C54   1.367       .  A
N50          C51   1.367       .  A
N50        C3206   1.448       .  S
C51          C52   1.382       .  A
C51        C3173   1.493       .  S
C52          C53   1.370       .  A
C52          H55   1.082       .  S
C53          C54   1.383       .  A
C53          H56   1.082       .  S
C54        C3254   1.499       .  S
N57          C61   1.363       .  A
N57          C58   1.361       .  A
N57        C3125   1.446       .  S
C58          C59   1.382       .  A
C58        C3158   1.486       .  S
C59          C60   1.372       .  A
C59          H62   1.082       .  S
C60          C61   1.383       .  A
C60          H63   1.082       .  S
C61        C3101   1.487       .  S
N64          C68   1.365       .  A
N64          C65   1.362       .  A
N64        C3134   1.448       .  S
C65          C66   1.381       .  A
C65        C3077   1.484       .  S
C66          C67   1.370       .  A
C66          H69   1.082       .  S
C67          C68   1.383       .  A
C67          H70   1.082       .  S
C68        C3053   1.487       .  S
N71          C75   1.359       .  A
N71          C72   1.361       .  A
N71        C3005   1.442       .  S
C72          C73   1.382       .  A
C72        C3029   1.482       .  S
C73          C74   1.376       .  A
C73          H76   1.082       .  S
C74          C75   1.381       .  A
C74          H77   1.082       .  S
C75        C3110   1.485       .  S
N78          C82   1.358       .  A
N78          C79   1.357       .  A
N78        C3014   1.438       .  S
C79          C80   1.382       .  A
C79        C2990   1.479       .  S
C80          C81   1.376       .  A
C80          H83   1.082       .  S
C81          C82   1.382       .  A
C81          H84   1.082       .  S
C82        C3062   1.484       .  S
O85         Ni93   1.919       .  S
O85          C95   1.282       .  A
O86         Ni93   1.922       .  S
O86          C96   1.283       .  A
O87         Ni93   1.925       .  S
O87          C97   1.282       .  A
O88         Ni93   1.920       .  S
O88          C98   1.282       .  A
O89         Ni94   1.915       .  S
O89          C98   1.281       .  A
O90         Ni94   1.920       .  S
O90          C97   1.282       .  A
O91         Ni94   1.923       .  S
O91          C96   1.282       .  A
O92         Ni94   1.916       .  S
O92          C95   1.281       .  A
Ni93        Ni94   2.387       .  S
C95        C2933   1.477       .  S
C96        C2918   1.487       .  S
C97        C3182   1.483       .  S
C98        C2966   1.479       .  S
O99        Ni107   1.913       .  S
O99         C109   1.280       .  A
O100       Ni107   1.923       .  S
O100        C110   1.282       .  A
O101       Ni107   1.928       .  S
O101        C111   1.283       .  A
O102       Ni107   1.921       .  S
O102        C112   1.283       .  A
O103       Ni108   1.910       .  S
O103        C112   1.279       .  A
O104       Ni108   1.915       .  S
O104        C111   1.282       .  A
O105       Ni108   1.928       .  S
O105        C110   1.283       .  A
O106       Ni108   1.921       .  S
O106        C109   1.282       .  A
Ni107      Ni108   2.386       .  S
C109       C2957   1.477       .  S
C110       C3461   1.487       .  S
C111       C2861   1.494       .  S
C112       C2885   1.480       .  S
O113       Ni121   1.926       .  S
O113        C123   1.283       .  A
O114       Ni121   1.924       .  S
O114        C124   1.283       .  A
O115       Ni121   1.927       .  S
O115        C125   1.282       .  A
O116       Ni121   1.921       .  S
O116        C126   1.282       .  A
O117       Ni122   1.916       .  S
O117        C126   1.281       .  A
O118       Ni122   1.921       .  S
O118        C125   1.282       .  A
O119       Ni122   1.923       .  S
O119        C124   1.283       .  A
O120       Ni122   1.920       .  S
O120        C123   1.282       .  A
Ni121      Ni122   2.385       .  S
C123       C2846   1.490       .  S
C124       C3221   1.491       .  S
C125       C2981   1.484       .  S
C126       C2942   1.482       .  S
O127       Ni135   1.917       .  S
O127        C137   1.281       .  A
O128       Ni135   1.927       .  S
O128        C138   1.283       .  A
O129       Ni135   1.935       .  S
O129        C139   1.285       .  A
O130       Ni135   1.923       .  S
O130        C140   1.282       .  A
O131       Ni136   1.926       .  S
O131        C140   1.283       .  A
O132       Ni136   1.927       .  S
O132        C139   1.283       .  A
O133       Ni136   1.921       .  S
O133        C138   1.281       .  A
O134       Ni136   1.915       .  S
O134        C137   1.282       .  A
Ni135      Ni136   2.384       .  S
C137       C2894   1.485       .  S
C138       C3038   1.481       .  S
C139       C3542   1.502       .  S
C140       C2837   1.484       .  S
N141        C145   1.363       .  A
N141        C142   1.365       .  A
N141       C2822   1.450       .  S
C142        C143   1.384       .  A
C142       C2909   1.487       .  S
C143        C144   1.370       .  A
C143        H146   1.082       .  S
C144        C145   1.379       .  A
C144        H147   1.082       .  S
C145       C2789   1.483       .  S
N148        C152   1.362       .  A
N148        C149   1.366       .  A
N148       C2813   1.451       .  S
C149        C150   1.384       .  A
C149       C2870   1.485       .  S
C150        C151   1.369       .  A
C150        H153   1.082       .  S
C151        C152   1.379       .  A
C151        H154   1.082       .  S
C152       C2765   1.481       .  S
N155        C159   1.363       .  A
N155        C156   1.361       .  A
N155       C2717   1.448       .  S
C156        C157   1.380       .  A
C156       C2750   1.479       .  S
C157        C158   1.370       .  A
C157        H160   1.082       .  S
C158        C159   1.382       .  A
C158        H161   1.082       .  S
C159       C2798   1.483       .  S
N162        C166   1.364       .  A
N162        C163   1.362       .  A
N162       C2726   1.449       .  S
C163        C164   1.381       .  A
C163       C2693   1.481       .  S
C164        C165   1.369       .  A
C164        H167   1.082       .  S
C165        C166   1.382       .  A
C165        H168   1.082       .  S
C166       C2774   1.484       .  S
O169       Ni177   1.920       .  S
O169        C179   1.281       .  A
O170       Ni177   1.921       .  S
O170        C180   1.282       .  A
O171       Ni177   1.923       .  S
O171        C181   1.282       .  A
O172       Ni177   1.921       .  S
O172        C182   1.282       .  A
O173       Ni178   1.915       .  S
O173        C182   1.281       .  A
O174       Ni178   1.920       .  S
O174        C181   1.282       .  A
O175       Ni178   1.931       .  S
O175        C180   1.283       .  A
O176       Ni178   1.926       .  S
O176        C179   1.283       .  A
Ni177      Ni178   2.386       .  S
C179       C2669   1.485       .  S
C180       C2621   1.491       .  S
C181       C3086   1.490       .  S
C182       C2645   1.480       .  S
O183       Ni191   1.910       .  S
O183        C193   1.279       .  A
O184       Ni191   1.916       .  S
O184        C194   1.282       .  A
O185       Ni191   1.938       .  S
O185        C195   1.286       .  A
O186       Ni191   1.931       .  S
O186        C196   1.284       .  A
O187       Ni192   1.921       .  S
O187        C196   1.282       .  A
O188       Ni192   1.925       .  S
O188        C195   1.282       .  A
O189       Ni192   1.923       .  S
O189        C194   1.282       .  A
O190       Ni192   1.917       .  S
O190        C193   1.282       .  A
Ni191      Ni192   2.383       .  S
C193       C2573   1.482       .  S
C194       C2741   1.485       .  S
C195       C2558   1.503       .  S
C196       C2597   1.490       .  S
O197       Ni205   1.930       .  S
O197        C207   1.284       .  A
O198       Ni205   1.932       .  S
O198        C208   1.284       .  A
O199       Ni205   1.920       .  S
O199        C209   1.281       .  A
O200       Ni205   1.917       .  S
O200        C210   1.281       .  A
O201       Ni206   1.916       .  S
O201        C210   1.281       .  A
O202       Ni206   1.921       .  S
O202        C209   1.283       .  A
O203       Ni206   1.923       .  S
O203        C208   1.282       .  A
O204       Ni206   1.917       .  S
O204        C207   1.281       .  A
Ni205      Ni206   2.385       .  S
C207       C2606   1.489       .  S
C208       C2534   1.492       .  S
C209       C2702   1.488       .  S
C210       C2654   1.478       .  S
O211       Ni219   1.910       .  S
O211        C221   1.280       .  A
O212       Ni219   1.920       .  S
O212        C222   1.282       .  A
O213       Ni219   1.930       .  S
O213        C223   1.283       .  A
O214       Ni219   1.926       .  S
O214        C224   1.283       .  A
O215       Ni220   1.919       .  S
O215        C224   1.282       .  A
O216       Ni220   1.923       .  S
O216        C223   1.284       .  A
O217       Ni220   1.923       .  S
O217        C222   1.282       .  A
O218       Ni220   1.917       .  S
O218        C221   1.281       .  A
Ni219      Ni220   2.384       .  S
C221       C2582   1.476       .  S
C222       C3149   1.487       .  S
C223       C2501   1.506       .  S
C224       C2678   1.484       .  S
N225        C229   1.369       .  A
N225        C226   1.363       .  A
N225       C2453   1.443       .  S
C226        C227   1.378       .  A
C226       C2486   1.488       .  S
C227        C228   1.372       .  A
C227        H230   1.082       .  S
C228        C229   1.386       .  A
C228        H231   1.082       .  S
C229       C2429   1.503       .  S
N232        C236   1.356       .  A
N232        C233   1.358       .  A
N232       C2462   1.436       .  S
C233        C234   1.382       .  A
C233       C2405   1.484       .  S
C234        C235   1.377       .  A
C234        H237   1.082       .  S
C235        C236   1.383       .  A
C235        H238   1.082       .  S
C236       C2381   1.486       .  S
N239        C243   1.358       .  A
N239        C240   1.360       .  A
N239       C2357   1.439       .  S
C240        C241   1.383       .  A
C240       C2525   1.484       .  S
C241        C242   1.374       .  A
C241        H244   1.082       .  S
C242        C243   1.380       .  A
C242        H245   1.082       .  S
C243       C2390   1.481       .  S
N246        C250   1.368       .  A
N246        C247   1.368       .  A
N246       C2366   1.446       .  S
C247        C248   1.382       .  A
C247       C2630   1.494       .  S
C248        C249   1.369       .  A
C248        H251   1.082       .  S
C249        C250   1.382       .  A
C249        H252   1.082       .  S
C250       C2438   1.499       .  S
N253        C257   1.369       .  A
N253        C254   1.369       .  A
N253       C2342   1.445       .  S
C254        C255   1.385       .  A
C254       C2549   1.502       .  S
C255        C256   1.373       .  A
C255        H258   1.082       .  S
C256        C257   1.379       .  A
C256        H259   1.082       .  S
C257       C2309   1.501       .  S
N260        C264   1.365       .  A
N260        C261   1.362       .  A
N260       C2333   1.447       .  S
C261        C262   1.382       .  A
C261       C2510   1.489       .  S
C262        C263   1.372       .  A
C262        H265   1.082       .  S
C263        C264   1.382       .  A
C263        H266   1.082       .  S
C264       C2285   1.486       .  S
N267        C271   1.360       .  A
N267        C268   1.363       .  A
N267       C2237   1.438       .  S
C268        C269   1.383       .  A
C268       C2270   1.493       .  S
C269        C270   1.376       .  A
C269        H272   1.082       .  S
C270        C271   1.383       .  A
C270        H273   1.082       .  S
C271       C2318   1.493       .  S
N274        C278   1.364       .  A
N274        C275   1.361       .  A
N274       C2246   1.439       .  S
C275        C276   1.379       .  A
C275       C2222   1.486       .  S
C276        C277   1.374       .  A
C276        H279   1.082       .  S
C277        C278   1.388       .  A
C277        H280   1.082       .  S
C278       C2294   1.501       .  S
N281        C285   1.363       .  A
N281        C282   1.361       .  A
N281       C2165   1.444       .  S
C282        C283   1.382       .  A
C282       C2189   1.487       .  S
C283        C284   1.373       .  A
C283        H286   1.082       .  S
C284        C285   1.382       .  A
C284        H287   1.082       .  S
C285       C2141   1.489       .  S
N288        C292   1.368       .  A
N288        C289   1.369       .  A
N288       C2174   1.449       .  S
C289        C290   1.382       .  A
C289       C2117   1.497       .  S
C290        C291   1.370       .  A
C290        H293   1.082       .  S
C291        C292   1.380       .  A
C291        H294   1.082       .  S
C292       C2102   1.490       .  S
N295        C299   1.363       .  A
N295        C296   1.360       .  A
N295       C2054   1.446       .  S
C296        C297   1.380       .  A
C296       C2069   1.481       .  S
C297        C298   1.372       .  A
C297        H300   1.082       .  S
C298        C299   1.382       .  A
C298        H301   1.082       .  S
C299       C2150   1.483       .  S
N302        C306   1.364       .  A
N302        C303   1.362       .  A
N302       C2045   1.445       .  S
C303        C304   1.380       .  A
C303       C2021   1.484       .  S
C304        C305   1.373       .  A
C304        H307   1.082       .  S
C305        C306   1.382       .  A
C305        H308   1.082       .  S
C306       C2093   1.488       .  S
O309       Ni317   1.902       .  S
O309        C319   1.278       .  A
O310       Ni317   1.915       .  S
O310        C320   1.280       .  A
O311       Ni317   1.935       .  S
O311        C321   1.285       .  A
O312       Ni317   1.929       .  S
O312        C322   1.284       .  A
O313       Ni318   1.912       .  S
O313        C322   1.280       .  A
O314       Ni318   1.919       .  S
O314        C321   1.281       .  A
O315       Ni318   1.926       .  S
O315        C320   1.283       .  A
O316       Ni318   1.923       .  S
O316        C319   1.283       .  A
Ni317      Ni318   2.388       .  S
C319       C1973   1.471       .  S
C320       C2030   1.484       .  S
C321       C2261   1.489       .  S
C322       C1997   1.482       .  S
O323       Ni331   1.921       .  S
O323        C333   1.282       .  A
O324       Ni331   1.923       .  S
O324        C334   1.283       .  A
O325       Ni331   1.915       .  S
O325        C335   1.281       .  A
O326       Ni331   1.916       .  S
O326        C336   1.281       .  A
O327       Ni332   1.919       .  S
O327        C336   1.282       .  A
O328       Ni332   1.926       .  S
O328        C335   1.283       .  A
O329       Ni332   1.928       .  S
O329        C334   1.282       .  A
O330       Ni332   1.922       .  S
O330        C333   1.282       .  A
Ni331      Ni332   2.386       .  S
C333       C2006   1.483       .  S
C334       C2477   1.492       .  S
C335       C2078   1.486       .  S
C336       C1958   1.478       .  S
O337       Ni345   1.908       .  S
O337        C347   1.280       .  A
O338       Ni345   1.918       .  S
O338        C348   1.281       .  A
O339       Ni345   1.925       .  S
O339        C349   1.283       .  A
O340       Ni345   1.919       .  S
O340        C350   1.282       .  A
O341       Ni346   1.918       .  S
O341        C350   1.282       .  A
O342       Ni346   1.923       .  S
O342        C349   1.283       .  A
O343       Ni346   1.924       .  S
O343        C348   1.282       .  A
O344       Ni346   1.918       .  S
O344        C347   1.281       .  A
Ni345      Ni346   2.387       .  S
C347       C1982   1.474       .  S
C348       C1901   1.483       .  S
C349       C2213   1.493       .  S
C350       C1925   1.483       .  S
O351       Ni359   1.918       .  S
O351        C361   1.281       .  A
O352       Ni359   1.928       .  S
O352        C362   1.284       .  A
O353       Ni359   1.925       .  S
O353        C363   1.283       .  A
O354       Ni359   1.917       .  S
O354        C364   1.281       .  A
O355       Ni360   1.918       .  S
O355        C364   1.281       .  A
O356       Ni360   1.921       .  S
O356        C363   1.282       .  A
O357       Ni360   1.924       .  S
O357        C362   1.282       .  A
O358       Ni360   1.918       .  S
O358        C361   1.282       .  A
Ni359      Ni360   2.386       .  S
C361       C1949   1.480       .  S
C362       C1877   1.492       .  S
C363       C2414   1.491       .  S
C364       C1934   1.476       .  S
N365        C369   1.360       .  A
N365        C366   1.363       .  A
N365       C1829   1.449       .  S
C366        C367   1.383       .  A
C366       C1853   1.482       .  S
C367        C368   1.370       .  A
C367        H370   1.082       .  S
C368        C369   1.379       .  A
C368        H371   1.082       .  S
C369       C1814   1.477       .  S
N372        C376   1.364       .  A
N372        C373   1.366       .  A
N372       C1838   1.450       .  S
C373        C374   1.385       .  A
C373       C1781   1.489       .  S
C374        C375   1.370       .  A
C374        H377   1.082       .  S
C375        C376   1.379       .  A
C375        H378   1.082       .  S
C376       C1757   1.486       .  S
N379        C383   1.366       .  A
N379        C380   1.366       .  A
N379       C1742   1.448       .  S
C380        C381   1.382       .  A
C380       C1886   1.490       .  S
C381        C382   1.370       .  A
C381        H384   1.082       .  S
C382        C383   1.381       .  A
C382        H385   1.082       .  S
C383       C1766   1.487       .  S
N386        C390   1.364       .  A
N386        C387   1.364       .  A
N386       C1733   1.450       .  S
C387        C388   1.381       .  A
C387       C1910   1.485       .  S
C388        C389   1.368       .  A
C388        H391   1.082       .  S
C389        C390   1.382       .  A
C389        H392   1.082       .  S
C390       C1805   1.481       .  S
O393       Ni401   1.920       .  S
O393        C403   1.282       .  A
O394       Ni401   1.923       .  S
O394        C404   1.282       .  A
O395       Ni401   1.916       .  S
O395        C405   1.281       .  A
O396       Ni401   1.916       .  S
O396        C406   1.281       .  A
O397       Ni402   1.915       .  S
O397        C406   1.281       .  A
O398       Ni402   1.920       .  S
O398        C405   1.281       .  A
O399       Ni402   1.927       .  S
O399        C404   1.283       .  A
O400       Ni402   1.923       .  S
O400        C403   1.283       .  A
Ni401      Ni402   2.386       .  S
C403       C1718   1.487       .  S
C404       C1661   1.486       .  S
C405       C1862   1.483       .  S
C406       C1685   1.478       .  S
O407       Ni415   1.926       .  S
O407        C417   1.283       .  A
O408       Ni415   1.932       .  S
O408        C418   1.284       .  A
O409       Ni415   1.929       .  S
O409        C419   1.283       .  A
O410       Ni415   1.918       .  S
O410        C420   1.281       .  A
O411       Ni416   1.912       .  S
O411        C420   1.281       .  A
O412       Ni416   1.920       .  S
O412        C419   1.282       .  A
O413       Ni416   1.923       .  S
O413        C418   1.281       .  A
O414       Ni416   1.917       .  S
O414        C417   1.281       .  A
Ni415      Ni416   2.386       .  S
C417       C1613   1.486       .  S
C418       C2126   1.490       .  S
C419       C1589   1.491       .  S
C420       C1646   1.475       .  S
O421       Ni429   1.917       .  S
O421        C431   1.281       .  A
O422       Ni429   1.926       .  S
O422        C432   1.283       .  A
O423       Ni429   1.929       .  S
O423        C433   1.283       .  A
O424       Ni429   1.920       .  S
O424        C434   1.282       .  A
O425       Ni430   1.911       .  S
O425        C434   1.280       .  A
O426       Ni430   1.915       .  S
O426        C433   1.280       .  A
O427       Ni430   1.920       .  S
O427        C432   1.282       .  A
O428       Ni430   1.919       .  S
O428        C431   1.282       .  A
Ni429      Ni430   2.386       .  S
C431       C1694   1.485       .  S
C432       C2198   1.489       .  S
C433       C1565   1.478       .  S
C434       C1637   1.481       .  S
O435       Ni443   1.915       .  S
O435        C445   1.280       .  A
O436       Ni443   1.921       .  S
O436        C446   1.283       .  A
O437       Ni443   1.919       .  S
O437        C447   1.281       .  A
O438       Ni443   1.916       .  S
O438        C448   1.281       .  A
O439       Ni444   1.923       .  S
O439        C448   1.282       .  A
O440       Ni444   1.927       .  S
O440        C447   1.284       .  A
O441       Ni444   1.931       .  S
O441        C446   1.283       .  A
O442       Ni444   1.929       .  S
O442        C445   1.283       .  A
Ni443      Ni444   2.385       .  S
C445       C1709   1.481       .  S
C446       C1541   1.492       .  S
C447       C1790   1.497       .  S
C448       C1622   1.481       .  S
O449       Ni457   1.921       .  S
O449        C459   1.282       .  A
O450       Ni457   1.927       .  S
O450        C460   1.283       .  A
O451       Ni457   1.920       .  S
O451        C461   1.282       .  A
O452       Ni457   1.920       .  S
O452        C462   1.283       .  A
O453       Ni458   1.920       .  S
O453        C462   1.281       .  A
O454       Ni458   1.926       .  S
O454        C461   1.283       .  A
O455       Ni458   1.931       .  S
O455        C460   1.284       .  A
O456       Ni458   1.921       .  S
O456        C459   1.281       .  A
Ni457      Ni458   2.383       .  S
C459       C1517   1.479       .  S
C460       C3374   1.496       .  S
C461       C1469   1.490       .  S
C462       C1493   1.498       .  S
O463       Ni471   1.924       .  S
O463        C473   1.283       .  A
O464       Ni471   1.928       .  S
O464        C474   1.284       .  A
O465       Ni471   1.931       .  S
O465        C475   1.283       .  A
O466       Ni471   1.922       .  S
O466        C476   1.282       .  A
O467       Ni472   1.913       .  S
O467        C476   1.280       .  A
O468       Ni472   1.918       .  S
O468        C475   1.281       .  A
O469       Ni472   1.928       .  S
O469        C474   1.283       .  A
O470       Ni472   1.920       .  S
O470        C473   1.282       .  A
Ni471      Ni472   2.385       .  S
C473       C1421   1.493       .  S
C474       C1397   1.495       .  S
C475       C3350   1.483       .  S
C476       C1445   1.479       .  S
O477       Ni485   1.923       .  S
O477        C487   1.283       .  A
O478       Ni485   1.934       .  S
O478        C488   1.286       .  A
O479       Ni485   1.929       .  S
O479        C489   1.284       .  A
O480       Ni485   1.922       .  S
O480        C490   1.281       .  A
O481       Ni486   1.921       .  S
O481        C490   1.282       .  A
O482       Ni486   1.925       .  S
O482        C489   1.283       .  A
O483       Ni486   1.920       .  S
O483        C488   1.280       .  A
O484       Ni486   1.914       .  S
O484        C487   1.280       .  A
Ni485      Ni486   2.382       .  S
C487       C1454   1.485       .  S
C488       C3413   1.506       .  S
C489       C1373   1.497       .  S
C490       C1502   1.478       .  S
O491       Ni499   1.919       .  S
O491        C501   1.282       .  A
O492       Ni499   1.924       .  S
O492        C502   1.283       .  A
O493       Ni499   1.924       .  S
O493        C503   1.282       .  A
O494       Ni499   1.918       .  S
O494        C504   1.281       .  A
O495       Ni500   1.924       .  S
O495        C504   1.283       .  A
O496       Ni500   1.924       .  S
O496        C503   1.283       .  A
O497       Ni500   1.928       .  S
O497        C502   1.283       .  A
O498       Ni500   1.921       .  S
O498        C501   1.282       .  A
Ni499      Ni500   2.386       .  S
C501       C1526   1.485       .  S
C502       C3278   1.488       .  S
C503       C1349   1.486       .  S
C504       C1430   1.483       .  S
N505        C509   1.361       .  A
N505        C506   1.361       .  A
N505       C1301   1.439       .  S
C506        C507   1.381       .  A
C506       C1325   1.485       .  S
C507        C508   1.376       .  A
C507        H510   1.082       .  S
C508        C509   1.383       .  A
C508        H511   1.082       .  S
C509       C1277   1.491       .  S
N512        C516   1.369       .  A
N512        C513   1.365       .  A
N512       C1310   1.448       .  S
C513        C514   1.378       .  A
C513       C1253   1.488       .  S
C514        C515   1.371       .  A
C514        H517   1.082       .  S
C515        C516   1.385       .  A
C515        H518   1.082       .  S
C516       C1229   1.498       .  S
N519        C523   1.365       .  A
N519        C520   1.361       .  A
N519       C1205   1.440       .  S
C520        C521   1.381       .  A
C520       C1550   1.491       .  S
C521        C522   1.373       .  A
C521        H524   1.082       .  S
C522        C523   1.385       .  A
C522        H525   1.082       .  S
C523       C1238   1.500       .  S
N526        C530   1.363       .  A
N526        C527   1.366       .  A
N526       C1214   1.442       .  S
C527        C528   1.385       .  A
C527       C1598   1.496       .  S
C528        C529   1.372       .  A
C528        H531   1.082       .  S
C529        C530   1.379       .  A
C529        H532   1.082       .  S
C530       C1286   1.488       .  S
N533        C537   1.361       .  A
N533        C534   1.359       .  A
N533       C1181   1.438       .  S
C534        C535   1.381       .  A
C534       C1670   1.486       .  S
C535        C536   1.376       .  A
C535        H538   1.082       .  S
C536        C537   1.384       .  A
C536        H539   1.082       .  S
C537       C1157   1.493       .  S
N540        C544   1.363       .  A
N540        C541   1.362       .  A
N540       C1190   1.443       .  S
C541        C542   1.380       .  A
C541       C1574   1.484       .  S
C542        C543   1.372       .  A
C542        H545   1.082       .  S
C543        C544   1.384       .  A
C543        H546   1.082       .  S
C544       C1133   1.495       .  S
N547        C551   1.362       .  A
N547        C548   1.360       .  A
N547       C1094   1.442       .  S
C548        C549   1.382       .  A
C548       C1109   1.484       .  S
C549        C550   1.373       .  A
C549        H552   1.082       .  S
C550        C551   1.383       .  A
C550        H553   1.082       .  S
C551       C1166   1.489       .  S
N554        C558   1.364       .  A
N554        C555   1.362       .  A
N554       C1085   1.441       .  S
C555        C556   1.383       .  A
C555       C1070   1.494       .  S
C556        C557   1.373       .  A
C556        H559   1.082       .  S
C557        C558   1.384       .  A
C557        H560   1.082       .  S
C558       C1142   1.498       .  S
N561        C565   1.361       .  A
N561        C562   1.364       .  A
N561       C1037   1.444       .  S
C562        C563   1.381       .  A
C562       C1358   1.485       .  S
C563        C564   1.373       .  A
C563        H566   1.082       .  S
C564        C565   1.380       .  A
C564        H567   1.082       .  S
C565       C1013   1.486       .  S
N568        C572   1.363       .  A
N568        C569   1.359       .  A
N568       C1046   1.439       .  S
C569        C570   1.379       .  A
C569       C1478   1.482       .  S
C570        C571   1.375       .  A
C570        H573   1.082       .  S
C571        C572   1.386       .  A
C571        H574   1.082       .  S
C572        C989   1.497       .  S
N575        C579   1.359       .  A
N575        C576   1.356       .  A
N575        C941   1.435       .  S
C576        C577   1.382       .  A
C576        C965   1.485       .  S
C577        C578   1.377       .  A
C577        H580   1.082       .  S
C578        C579   1.384       .  A
C578        H581   1.082       .  S
C579       C1022   1.491       .  S
N582        C586   1.365       .  A
N582        C583   1.360       .  A
N582        C950   1.442       .  S
C583        C584   1.379       .  A
C583        C917   1.485       .  S
C584        C585   1.375       .  A
C584        H587   1.082       .  S
C585        C586   1.385       .  A
C585        H588   1.082       .  S
C586        C998   1.497       .  S
O589       Ni597   1.912       .  S
O589        C599   1.281       .  A
O590       Ni597   1.920       .  S
O590        C600   1.282       .  A
O591       Ni597   1.927       .  S
O591        C601   1.283       .  A
O592       Ni597   1.919       .  S
O592        C602   1.281       .  A
O593       Ni598   1.922       .  S
O593        C602   1.282       .  A
O594       Ni598   1.925       .  S
O594        C601   1.283       .  A
O595       Ni598   1.926       .  S
O595        C600   1.283       .  A
O596       Ni598   1.923       .  S
O596        C599   1.282       .  A
Ni597      Ni598   2.386       .  S
C599        C893   1.484       .  S
C600       C1118   1.485       .  S
C601        C926   1.492       .  S
C602        C869   1.479       .  S
O603       Ni611   1.917       .  S
O603        C613   1.281       .  A
O604       Ni611   1.925       .  S
O604        C614   1.283       .  A
O605       Ni611   1.923       .  S
O605        C615   1.282       .  A
O606       Ni611   1.920       .  S
O606        C616   1.282       .  A
O607       Ni612   1.923       .  S
O607        C616   1.282       .  A
O608       Ni612   1.930       .  S
O608        C615   1.284       .  A
O609       Ni612   1.924       .  S
O609        C614   1.283       .  A
O610       Ni612   1.917       .  S
O610        C613   1.281       .  A
Ni611      Ni612   2.385       .  S
C613        C902   1.478       .  S
C614       C1334   1.492       .  S
C615        C974   1.497       .  S
C616        C845   1.484       .  S
O617       Ni625   1.922       .  S
O617        C627   1.283       .  A
O618       Ni625   1.926       .  S
O618        C628   1.283       .  A
O619       Ni625   1.929       .  S
O619        C629   1.283       .  A
O620       Ni625   1.925       .  S
O620        C630   1.283       .  A
O621       Ni626   1.920       .  S
O621        C630   1.282       .  A
O622       Ni626   1.928       .  S
O622        C629   1.283       .  A
O623       Ni626   1.929       .  S
O623        C628   1.284       .  A
O624       Ni626   1.917       .  S
O624        C627   1.280       .  A
Ni625      Ni626   2.383       .  S
C627        C830   1.497       .  S
C628       C1262   1.492       .  S
C629        C797   1.487       .  S
C630        C854   1.488       .  S
O631       Ni639   1.921       .  S
O631        C641   1.281       .  A
O632       Ni639   1.927       .  S
O632        C642   1.283       .  A
O633       Ni639   1.925       .  S
O633        C643   1.283       .  A
O634       Ni639   1.916       .  S
O634        C644   1.279       .  A
O635       Ni640   1.926       .  S
O635        C644   1.284       .  A
O636       Ni640   1.928       .  S
O636        C643   1.283       .  A
O637       Ni640   1.926       .  S
O637        C642   1.282       .  A
O638       Ni640   1.918       .  S
O638        C641   1.281       .  A
Ni639      Ni640   2.383       .  S
C641        C821   1.475       .  S
C642       C1061   1.492       .  S
C643        C782   1.493       .  S
C644        C878   1.499       .  S
N645        C649   1.367       .  A
N645        C646   1.363       .  A
N645        C758   1.445       .  S
C646        C647   1.381       .  A
C646       C1406   1.491       .  S
C647        C648   1.373       .  A
C647        H650   1.082       .  S
C648        C649   1.384       .  A
C648        H651   1.082       .  S
C649        C725   1.496       .  S
N652        C656   1.368       .  A
N652        C653   1.366       .  A
N652        C749   1.446       .  S
C653        C654   1.381       .  A
C653       C1382   1.493       .  S
C654        C655   1.371       .  A
C654        H657   1.082       .  S
C655        C656   1.382       .  A
C655        H658   1.082       .  S
C656        C701   1.494       .  S
N659        C663   1.361       .  A
N659        C660   1.363       .  A
N659        C677   1.439       .  S
C660        C661   1.385       .  A
C660        C773   1.495       .  S
C661        C662   1.375       .  A
C661        H664   1.082       .  S
C662        C663   1.382       .  A
C662        H665   1.082       .  S
C663        C734   1.495       .  S
N666        C670   1.361       .  A
N666        C667   1.358       .  A
N666        C686   1.439       .  S
C667        C668   1.381       .  A
C667        C806   1.483       .  S
C668        C669   1.376       .  A
C668        H671   1.082       .  S
C669        C670   1.384       .  A
C669        H672   1.082       .  S
C670        C710   1.492       .  S
C673        C674   1.405       .  A
C673        C678   1.403       .  A
C673        H683   1.084       .  S
C674        C675   1.413       .  A
C674        C679   1.481       .  S
C675        C676   1.396       .  A
C675        S680   1.805       .  S
C676        C677   1.401       .  A
C676        H681   1.083       .  S
C677        C678   1.412       .  A
C678        S682   1.800       .  S
C679        C684   1.410       .  A
C679        C688   1.402       .  A
S680        H696   1.406       .  S
S682        H693   1.405       .  S
C684        C685   1.405       .  A
C684        S689   1.806       .  S
C685        C686   1.403       .  A
C685        H690   1.081       .  S
C686        C687   1.410       .  A
C687        C688   1.398       .  A
C687        S691   1.799       .  S
C688        H692   1.084       .  S
S689        H694   1.407       .  S
S691        H695   1.406       .  S
C697        C698   1.407       .  A
C697        C702   1.411       .  A
C697        H707   1.083       .  S
C698        C699   1.412       .  A
C698        C703   1.491       .  S
C699        C700   1.396       .  A
C699        S704   1.805       .  S
C700        C701   1.405       .  A
C700        H705   1.084       .  S
C701        C702   1.418       .  A
C702        S706   1.803       .  S
C703        C708   1.412       .  A
C703        C712   1.401       .  A
S704        H720   1.406       .  S
S706        H717   1.405       .  S
C708        C709   1.411       .  A
C708        S713   1.805       .  S
C709        C710   1.407       .  A
C709        H714   1.082       .  S
C710        C711   1.417       .  A
C711        C712   1.400       .  A
C711        S715   1.805       .  S
C712        H716   1.084       .  S
S713        H718   1.407       .  S
S715        H719   1.403       .  S
C721        C722   1.407       .  A
C721        C726   1.410       .  A
C721        H731   1.084       .  S
C722        C723   1.412       .  A
C722        C727   1.493       .  S
C723        C724   1.398       .  A
C723        S728   1.805       .  S
C724        C725   1.406       .  A
C724        H729   1.084       .  S
C725        C726   1.418       .  A
C726        S730   1.802       .  S
C727        C732   1.413       .  A
C727        C736   1.403       .  A
S728        H744   1.406       .  S
S730        H741   1.405       .  S
C732        C733   1.410       .  A
C732        S737   1.805       .  S
C733        C734   1.406       .  A
C733        H738   1.082       .  S
C734        C735   1.416       .  A
C735        C736   1.403       .  A
C735        S739   1.803       .  S
C736        H740   1.084       .  S
S737        H742   1.407       .  S
S739        H743   1.407       .  S
C745        C746   1.406       .  A
C745        C750   1.401       .  A
C745        H755   1.083       .  S
C746        C747   1.416       .  A
C746        C751   1.495       .  S
C747        C748   1.399       .  A
C747        S752   1.804       .  S
C748        C749   1.403       .  A
C748        H753   1.083       .  S
C749        C750   1.415       .  A
C750        S754   1.804       .  S
C751        C756   1.415       .  A
C751        C760   1.407       .  A
S752        H768   1.407       .  S
S754        H765   1.405       .  S
C756        C757   1.405       .  A
C756        S761   1.807       .  S
C757        C758   1.405       .  A
C757        H762   1.082       .  S
C758        C759   1.411       .  A
C759        C760   1.399       .  A
C759        S763   1.801       .  S
C760        H764   1.083       .  S
S761        H766   1.407       .  S
S763        H767   1.406       .  S
C769        C770   1.400       .  A
C769        C774   1.398       .  A
C769        H779   1.084       .  S
C770        C771   1.418       .  A
C770        C775   1.493       .  S
C771        C772   1.410       .  A
C771        S776   1.804       .  S
C772        C773   1.407       .  A
C772        H777   1.083       .  S
C773        C774   1.419       .  A
C774        S778   1.805       .  S
C775        C780   1.413       .  A
C775        C784   1.401       .  A
S776        H792   1.404       .  S
S778        H789   1.404       .  S
C780        C781   1.411       .  A
C780        S785   1.805       .  S
C781        C782   1.408       .  A
C781        H786   1.083       .  S
C782        C783   1.418       .  A
C783        C784   1.401       .  A
C783        S787   1.800       .  S
C784        H788   1.084       .  S
S785        H790   1.407       .  S
S787        H791   1.407       .  S
C793        C794   1.402       .  A
C793        C798   1.401       .  A
C793        H803   1.084       .  S
C794        C795   1.417       .  A
C794        C799   1.495       .  S
C795        C796   1.406       .  A
C795        S800   1.803       .  S
C796        C797   1.403       .  A
C796        H801   1.084       .  S
C797        C798   1.416       .  A
C798        S802   1.798       .  S
C799        C804   1.414       .  A
C799        C808   1.404       .  A
S800        H816   1.406       .  S
S802        H813   1.403       .  S
C804        C805   1.409       .  A
C804        S809   1.806       .  S
C805        C806   1.403       .  A
C805        H810   1.083       .  S
C806        C807   1.414       .  A
C807        C808   1.401       .  A
C807        S811   1.806       .  S
C808        H812   1.084       .  S
S809        H814   1.407       .  S
S811        H815   1.404       .  S
C817        C818   1.403       .  A
C817        C822   1.400       .  A
C817        H827   1.084       .  S
C818        C819   1.413       .  A
C818        C823   1.482       .  S
C819        C820   1.401       .  A
C819        S824   1.804       .  S
C820        C821   1.403       .  A
C820        H825   1.084       .  S
C821        C822   1.412       .  A
C822        S826   1.802       .  S
C823        C828   1.407       .  A
C823        C832   1.398       .  A
S824        H840   1.405       .  S
S826        H837   1.406       .  S
C828        C829   1.404       .  A
C828        S833   1.807       .  S
C829        C830   1.411       .  A
C829        H834   1.082       .  S
C830        C831   1.424       .  A
C831        C832   1.403       .  A
C831        S835   1.810       .  S
C832        H836   1.083       .  S
S833        H838   1.407       .  S
S835        H839   1.407       .  S
C841        C842   1.402       .  A
C841        C846   1.401       .  A
C841        H851   1.084       .  S
C842        C843   1.412       .  A
C842        C847   1.483       .  S
C843        C844   1.403       .  A
C843        S848   1.804       .  S
C844        C845   1.406       .  A
C844        H849   1.084       .  S
C845        C846   1.416       .  A
C846        S850   1.803       .  S
C847        C852   1.408       .  A
C847        C856   1.401       .  A
S848        H864   1.405       .  S
S850        H861   1.407       .  S
C852        C853   1.404       .  A
C852        S857   1.806       .  S
C853        C854   1.407       .  A
C853        H858   1.081       .  S
C854        C855   1.417       .  A
C855        C856   1.402       .  A
C855        S859   1.803       .  S
C856        H860   1.084       .  S
S857        H862   1.407       .  S
S859        H863   1.408       .  S
C865        C866   1.404       .  A
C865        C870   1.401       .  A
C865        H875   1.084       .  S
C866        C867   1.414       .  A
C866        C871   1.487       .  S
C867        C868   1.401       .  A
C867        S872   1.804       .  S
C868        C869   1.403       .  A
C868        H873   1.084       .  S
C869        C870   1.414       .  A
C870        S874   1.803       .  S
C871        C876   1.409       .  A
C871        C880   1.400       .  A
S872        H888   1.406       .  S
S874        H885   1.407       .  S
C876        C877   1.405       .  A
C876        S881   1.807       .  S
C877        C878   1.411       .  A
C877        H882   1.082       .  S
C878        C879   1.424       .  A
C879        C880   1.400       .  A
C879        S883   1.801       .  S
C880        H884   1.084       .  S
S881        H886   1.407       .  S
S883        H887   1.405       .  S
C889        C890   1.403       .  A
C889        C894   1.401       .  A
C889        H899   1.084       .  S
C890        C891   1.411       .  A
C890        C895   1.484       .  S
C891        C892   1.398       .  A
C891        S896   1.804       .  S
C892        C893   1.406       .  A
C892        H897   1.084       .  S
C893        C894   1.417       .  A
C894        S898   1.802       .  S
C895        C900   1.410       .  A
C895        C904   1.403       .  A
S896        H912   1.406       .  S
S898        H909   1.407       .  S
C900        C901   1.403       .  A
C900        S905   1.807       .  S
C901        C902   1.405       .  A
C901        H906   1.083       .  S
C902        C903   1.414       .  A
C903        C904   1.399       .  A
C903        S907   1.804       .  S
C904        H908   1.084       .  S
S905        H910   1.407       .  S
S907        H911   1.406       .  S
C913        C914   1.408       .  A
C913        C918   1.408       .  A
C913        H923   1.083       .  S
C914        C915   1.417       .  A
C914        C919   1.500       .  S
C915        C916   1.402       .  A
C915        S920   1.803       .  S
C916        C917   1.402       .  A
C916        H921   1.084       .  S
C917        C918   1.408       .  A
C918        S922   1.803       .  S
C919        C924   1.414       .  A
C919        C928   1.407       .  A
S920        H936   1.407       .  S
S922        H933   1.407       .  S
C924        C925   1.408       .  A
C924        S929   1.807       .  S
C925        C926   1.408       .  A
C925        H930   1.083       .  S
C926        C927   1.415       .  A
C927        C928   1.404       .  A
C927        S931   1.802       .  S
C928        H932   1.084       .  S
S929        H934   1.407       .  S
S931        H935   1.407       .  S
C937        C938   1.404       .  A
C937        C942   1.400       .  A
C937        H947   1.084       .  S
C938        C939   1.414       .  A
C938        C943   1.483       .  S
C939        C940   1.398       .  A
C939        S944   1.804       .  S
C940        C941   1.400       .  A
C940        H945   1.083       .  S
C941        C942   1.411       .  A
C942        S946   1.803       .  S
C943        C948   1.410       .  A
C943        C952   1.403       .  A
S944        H960   1.406       .  S
S946        H957   1.403       .  S
C948        C949   1.402       .  A
C948        S953   1.807       .  S
C949        C950   1.404       .  A
C949        H954   1.080       .  S
C950        C951   1.413       .  A
C951        C952   1.399       .  A
C951        S955   1.802       .  S
C952        H956   1.084       .  S
S953        H958   1.407       .  S
S955        H959   1.405       .  S
C961        C962   1.403       .  A
C961        C966   1.402       .  A
C961        H971   1.084       .  S
C962        C963   1.414       .  A
C962        C967   1.489       .  S
C963        C964   1.404       .  A
C963        S968   1.803       .  S
C964        C965   1.403       .  A
C964        H969   1.082       .  S
C965        C966   1.414       .  A
C966        S970   1.804       .  S
C967        C972   1.409       .  A
C967        C976   1.401       .  A
S968        H984   1.406       .  S
S970        H981   1.406       .  S
C972        C973   1.409       .  A
C972        S977   1.805       .  S
C973        C974   1.411       .  A
C973        H978   1.082       .  S
C974        C975   1.418       .  A
C975        C976   1.401       .  A
C975        S979   1.799       .  S
C976        H980   1.084       .  S
S977        H982   1.407       .  S
S979        H983   1.403       .  S
C985        C986   1.403       .  A
C985        C990   1.400   1_455  A
C985        H995   1.084       .  S
C986        C987   1.418   1_455  A
C986        C991   1.501       .  S
C987        C988   1.408       .  A
C987        S992   1.804       .  S
C988        C989   1.407       .  A
C988        H993   1.082       .  S
C989        C990   1.417       .  A
C990        S994   1.805       .  S
C991        C996   1.415       .  A
C991       C1000   1.408       .  A
S992       H1008   1.406   1_655  S
S994       H1005   1.406       .  S
C996        C997   1.405       .  A
C996       S1001   1.809       .  S
C997        C998   1.407       .  A
C997       H1002   1.083       .  S
C998        C999   1.416       .  A
C999       C1000   1.407       .  A
C999       S1003   1.802       .  S
C1000      H1004   1.084       .  S
S1001      H1006   1.406       .  S
S1003      H1007   1.406       .  S
C1009      C1010   1.406   1_655  A
C1009      C1014   1.404       .  A
C1009      H1019   1.084       .  S
C1010      C1011   1.413   1_455  A
C1010      C1015   1.492       .  S
C1011      C1012   1.402       .  A
C1011      S1016   1.803   1_655  S
C1012      C1013   1.404       .  A
C1012      H1017   1.084       .  S
C1013      C1014   1.412       .  A
C1014      S1018   1.799       .  S
C1015      C1020   1.410       .  A
C1015      C1024   1.403       .  A
S1016      H1032   1.407       .  S
S1018      H1029   1.405       .  S
C1020      C1021   1.409       .  A
C1020      S1025   1.805       .  S
C1021      C1022   1.407       .  A
C1021      H1026   1.080       .  S
C1022      C1023   1.416       .  A
C1023      C1024   1.400       .  A
C1023      S1027   1.804       .  S
C1024      H1028   1.084       .  S
S1025      H1030   1.407       .  S
S1027      H1031   1.404       .  S
C1033      C1034   1.401       .  A
C1033      C1038   1.402       .  A
C1033      H1043   1.084       .  S
C1034      C1035   1.412       .  A
C1034      C1039   1.481       .  S
C1035      C1036   1.399       .  A
C1035      S1040   1.804       .  S
C1036      C1037   1.404       .  A
C1036      H1041   1.083       .  S
C1037      C1038   1.417       .  A
C1038      S1042   1.800       .  S
C1039      C1044   1.409       .  A
C1039      C1048   1.403       .  A
S1040      H1056   1.405       .  S
S1042      H1053   1.402       .  S
C1044      C1045   1.403       .  A
C1044      S1049   1.805       .  S
C1045      C1046   1.403       .  A
C1045      H1050   1.082       .  S
C1046      C1047   1.408       .  A
C1047      C1048   1.403       .  A
C1047      S1051   1.803       .  S
C1048      H1052   1.083       .  S
S1049      H1054   1.407       .  S
S1051      H1055   1.406       .  S
C1057      C1058   1.407       .  A
C1057      C1062   1.407       .  A
C1057      H1067   1.084       .  S
C1058      C1059   1.416       .  A
C1058      C1063   1.498       .  S
C1059      C1060   1.403       .  A
C1059      S1064   1.805       .  S
C1060      C1061   1.406       .  A
C1060      H1065   1.084       .  S
C1061      C1062   1.416       .  A
C1062      S1066   1.802       .  S
C1063      C1068   1.416       .  A
C1063      C1072   1.402       .  A
S1064      H1080   1.406       .  S
S1066      H1077   1.407       .  S
C1068      C1069   1.412       .  A
C1068      S1073   1.805       .  S
C1069      C1070   1.405       .  A
C1069      H1074   1.082       .  S
C1070      C1071   1.417       .  A
C1071      C1072   1.398       .  A
C1071      S1075   1.804       .  S
C1072      H1076   1.084       .  S
S1073      H1078   1.407       .  S
S1075      H1079   1.407       .  S
C1081      C1082   1.403       .  A
C1081      C1086   1.400       .  A
C1081      H1091   1.084       .  S
C1082      C1083   1.414       .  A
C1082      C1087   1.486       .  S
C1083      C1084   1.401       .  A
C1083      S1088   1.803       .  S
C1084      C1085   1.402       .  A
C1084      H1089   1.083       .  S
C1085      C1086   1.412       .  A
C1086      S1090   1.801       .  S
C1087      C1092   1.412       .  A
C1087      C1096   1.402       .  A
S1088      H1104   1.406       .  S
S1090      H1101   1.407       .  S
C1092      C1093   1.408       .  A
C1092      S1097   1.805       .  S
C1093      C1094   1.404       .  A
C1093      H1098   1.082       .  S
C1094      C1095   1.411       .  A
C1095      C1096   1.397       .  A
C1095      S1099   1.799       .  S
C1096      H1100   1.084       .  S
S1097      H1102   1.407       .  S
S1099      H1103   1.406       .  S
C1105      C1106   1.403       .  A
C1105      C1110   1.399       .  A
C1105      H1115   1.084       .  S
C1106      C1107   1.416       .  A
C1106      C1111   1.492       .  S
C1107      C1108   1.407       .  A
C1107      S1112   1.803       .  S
C1108      C1109   1.403       .  A
C1108      H1113   1.084       .  S
C1109      C1110   1.414       .  A
C1110      S1114   1.804       .  S
C1111      C1116   1.411       .  A
C1111      C1120   1.406       .  A
S1112      H1128   1.406       .  S
S1114      H1125   1.407       .  S
C1116      C1117   1.405       .  A
C1116      S1121   1.807       .  S
C1117      C1118   1.406       .  A
C1117      H1122   1.083       .  S
C1118      C1119   1.413       .  A
C1119      C1120   1.405       .  A
C1119      S1123   1.802       .  S
C1120      H1124   1.084       .  S
S1121      H1126   1.407       .  S
S1123      H1127   1.407       .  S
C1129      C1130   1.404       .  A
C1129      C1134   1.399       .  A
C1129      H1139   1.083       .  S
C1130      C1131   1.418       .  A
C1130      C1135   1.499       .  S
C1131      C1132   1.405       .  A
C1131      S1136   1.803       .  S
C1132      C1133   1.406       .  A
C1132      H1137   1.082       .  S
C1133      C1134   1.416       .  A
C1134      S1138   1.804       .  S
C1135      C1140   1.416   1_565  A
C1135      C1144   1.403       .  A
S1136      H1152   1.407       .  S
S1138      H1149   1.407       .  S
C1140      C1141   1.409       .  A
C1140      S1145   1.807       .  S
C1141      C1142   1.407       .  A
C1141      H1146   1.080       .  S
C1142      C1143   1.417       .  A
C1143      C1144   1.399   1_545  A
C1143      S1147   1.805       .  S
C1144      H1148   1.083       .  S
S1145      H1150   1.407       .  S
S1147      H1151   1.405       .  S
C1153      C1154   1.402       .  A
C1153      C1158   1.397       .  A
C1153      H1163   1.084       .  S
C1154      C1155   1.414       .  A
C1154      C1159   1.488       .  S
C1155      C1156   1.406       .  A
C1155      S1160   1.804       .  S
C1156      C1157   1.409       .  A
C1156      H1161   1.081       .  S
C1157      C1158   1.417       .  A
C1158      S1162   1.805       .  S
C1159      C1164   1.412   1_565  A
C1159      C1168   1.401   1_565  A
S1160      H1176   1.405       .  S
S1162      H1173   1.404       .  S
C1164      C1165   1.408       .  A
C1164      S1169   1.805       .  S
C1165      C1166   1.405       .  A
C1165      H1170   1.082       .  S
C1166      C1167   1.417       .  A
C1167      C1168   1.399       .  A
C1167      S1171   1.806       .  S
C1168      H1172   1.084   1_545  S
S1169      H1174   1.407       .  S
S1171      H1175   1.403       .  S
C1177      C1178   1.405       .  A
C1177      C1182   1.400       .  A
C1177      H1187   1.083       .  S
C1178      C1179   1.418       .  A
C1178      C1183   1.492       .  S
C1179      C1180   1.398       .  A
C1179      S1184   1.804       .  S
C1180      C1181   1.400       .  A
C1180      H1185   1.084       .  S
C1181      C1182   1.413       .  A
C1182      S1186   1.804       .  S
C1183      C1188   1.416       .  A
C1183      C1192   1.404       .  A
S1184      H1200   1.407       .  S
S1186      H1197   1.397       .  S
C1188      C1189   1.403       .  A
C1188      S1193   1.809       .  S
C1189      C1190   1.403       .  A
C1189      H1194   1.082       .  S
C1190      C1191   1.413       .  A
C1191      C1192   1.398       .  A
C1191      S1195   1.800       .  S
C1192      H1196   1.084       .  S
S1193      H1198   1.407       .  S
S1195      H1199   1.406       .  S
C1201      C1202   1.403       .  A
C1201      C1206   1.400       .  A
C1201      H1211   1.084       .  S
C1202      C1203   1.413       .  A
C1202      C1207   1.483       .  S
C1203      C1204   1.401       .  A
C1203      S1208   1.803       .  S
C1204      C1205   1.403       .  A
C1204      H1209   1.083       .  S
C1205      C1206   1.410       .  A
C1206      S1210   1.801       .  S
C1207      C1212   1.410       .  A
C1207      C1216   1.400       .  A
S1208      H1224   1.406       .  S
S1210      H1221   1.406       .  S
C1212      C1213   1.407       .  A
C1212      S1217   1.805       .  S
C1213      C1214   1.404       .  A
C1213      H1218   1.082       .  S
C1214      C1215   1.416       .  A
C1215      C1216   1.398       .  A
C1215      S1219   1.805       .  S
C1216      H1220   1.084       .  S
S1217      H1222   1.407       .  S
S1219      H1223   1.402       .  S
C1225      C1226   1.403       .  A
C1225      C1230   1.399       .  A
C1225      H1235   1.084       .  S
C1226      C1227   1.419       .  A
C1226      C1231   1.501       .  S
C1227      C1228   1.409       .  A
C1227      S1232   1.803       .  S
C1228      C1229   1.406       .  A
C1228      H1233   1.083       .  S
C1229      C1230   1.419       .  A
C1230      S1234   1.806       .  S
C1231      C1236   1.416       .  A
C1231      C1240   1.403       .  A
S1232      H1248   1.407       .  S
S1234      H1245   1.405       .  S
C1236      C1237   1.410       .  A
C1236      S1241   1.806       .  S
C1237      C1238   1.406       .  A
C1237      H1242   1.080       .  S
C1238      C1239   1.419       .  A
C1239      C1240   1.402       .  A
C1239      S1243   1.805       .  S
C1240      H1244   1.084       .  S
S1241      H1246   1.407       .  S
S1243      H1247   1.406       .  S
C1249      C1250   1.406       .  A
C1249      C1254   1.406       .  A
C1249      H1259   1.084       .  S
C1250      C1251   1.416       .  A
C1250      C1255   1.496       .  S
C1251      C1252   1.402       .  A
C1251      S1256   1.805       .  S
C1252      C1253   1.404       .  A
C1252      H1257   1.084       .  S
C1253      C1254   1.413       .  A
C1254      S1258   1.801       .  S
C1255      C1260   1.415       .  A
C1255      C1264   1.402       .  A
S1256      H1272   1.406       .  S
S1258      H1269   1.405       .  S
C1260      C1261   1.410       .  A
C1260      S1265   1.807       .  S
C1261      C1262   1.406       .  A
C1261      H1266   1.083       .  S
C1262      C1263   1.418       .  A
C1263      C1264   1.402       .  A
C1263      S1267   1.798       .  S
C1264      H1268   1.084       .  S
S1265      H1270   1.407       .  S
S1267      H1271   1.403       .  S
C1273      C1274   1.404       .  A
C1273      C1278   1.406       .  A
C1273      H1283   1.084       .  S
C1274      C1275   1.415       .  A
C1274      C1279   1.491       .  S
C1275      C1276   1.400       .  A
C1275      S1280   1.805       .  S
C1276      C1277   1.404       .  A
C1276      H1281   1.084       .  S
C1277      C1278   1.416       .  A
C1278      S1282   1.797       .  S
C1279      C1284   1.409       .  A
C1279      C1288   1.405       .  A
S1280      H1296   1.406       .  S
S1282      H1293   1.405       .  S
C1284      C1285   1.404       .  A
C1284      S1289   1.806       .  S
C1285      C1286   1.405       .  A
C1285      H1290   1.083       .  S
C1286      C1287   1.416       .  A
C1287      C1288   1.405       .  A
C1287      S1291   1.804       .  S
C1288      H1292   1.084       .  S
S1289      H1294   1.407       .  S
S1291      H1295   1.404       .  S
C1297      C1298   1.406       .  A
C1297      C1302   1.399       .  A
C1297      H1307   1.083       .  S
C1298      C1299   1.416       .  A
C1298      C1303   1.493       .  S
C1299      C1300   1.401       .  A
C1299      S1304   1.803       .  S
C1300      C1301   1.402       .  A
C1300      H1305   1.083       .  S
C1301      C1302   1.413       .  A
C1302      S1306   1.805       .  S
C1303      C1308   1.413       .  A
C1303      C1312   1.406       .  A
S1304      H1320   1.407       .  S
S1306      H1317   1.401       .  S
C1308      C1309   1.403       .  A
C1308      S1313   1.808       .  S
C1309      C1310   1.406       .  A
C1309      H1314   1.081       .  S
C1310      C1311   1.414       .  A
C1311      C1312   1.400       .  A
C1311      S1315   1.802       .  S
C1312      H1316   1.083       .  S
S1313      H1318   1.407       .  S
S1315      H1319   1.402       .  S
C1321      C1322   1.404       .  A
C1321      C1326   1.403       .  A
C1321      H1331   1.084       .  S
C1322      C1323   1.415       .  A
C1322      C1327   1.489       .  S
C1323      C1324   1.403       .  A
C1323      S1328   1.806       .  S
C1324      C1325   1.405       .  A
C1324      H1329   1.084       .  S
C1325      C1326   1.413       .  A
C1326      S1330   1.803       .  S
C1327      C1332   1.409       .  A
C1327      C1336   1.403       .  A
S1328      H1344   1.404       .  S
S1330      H1341   1.405       .  S
C1332      C1333   1.407       .  A
C1332      S1337   1.806       .  S
C1333      C1334   1.409       .  A
C1333      H1338   1.083       .  S
C1334      C1335   1.417       .  A
C1335      C1336   1.402       .  A
C1335      S1339   1.799       .  S
C1336      H1340   1.084       .  S
S1337      H1342   1.407       .  S
S1339      H1343   1.402       .  S
C1345      C1346   1.408       .  A
C1345      C1350   1.405       .  A
C1345      H1355   1.084       .  S
C1346      C1347   1.413       .  A
C1346      C1351   1.494       .  S
C1347      C1348   1.402       .  A
C1347      S1352   1.804       .  S
C1348      C1349   1.406       .  A
C1348      H1353   1.084       .  S
C1349      C1350   1.413       .  A
C1350      S1354   1.803       .  S
C1351      C1356   1.411       .  A
C1351      C1360   1.405       .  A
S1352      H1368   1.406       .  S
S1354      H1365   1.407       .  S
C1356      C1357   1.405       .  A
C1356      S1361   1.807       .  S
C1357      C1358   1.405       .  A
C1357      H1362   1.081       .  S
C1358      C1359   1.415       .  A
C1359      C1360   1.404       .  A
C1359      S1363   1.804       .  S
C1360      H1364   1.084       .  S
S1361      H1366   1.407       .  S
S1363      H1367   1.401       .  S
C1369      C1370   1.402       .  A
C1369      C1374   1.403       .  A
C1369      H1379   1.084       .  S
C1370      C1371   1.416       .  A
C1370      C1375   1.496       .  S
C1371      C1372   1.407       .  A
C1371      S1376   1.804       .  S
C1372      C1373   1.407       .  A
C1372      H1377   1.084       .  S
C1373      C1374   1.421       .  A
C1374      S1378   1.802       .  S
C1375      C1380   1.411       .  A
C1375      C1384   1.407       .  A
S1376      H1392   1.406       .  S
S1378      H1389   1.407       .  S
C1380      C1381   1.405       .  A
C1380      S1385   1.807       .  S
C1381      C1382   1.406       .  A
C1381      H1386   1.083       .  S
C1382      C1383   1.412       .  A
C1383      C1384   1.411       .  A
C1383      S1387   1.803       .  S
C1384      H1388   1.083       .  S
S1385      H1390   1.407       .  S
S1387      H1391   1.407       .  S
C1393      C1394   1.406       .  A
C1393      C1398   1.406       .  A
C1393      H1403   1.084       .  S
C1394      C1395   1.414       .  A
C1394      C1399   1.497       .  S
C1395      C1396   1.405       .  A
C1395      S1400   1.804       .  S
C1396      C1397   1.408       .  A
C1396      H1401   1.084       .  S
C1397      C1398   1.417       .  A
C1398      S1402   1.802       .  S
C1399      C1404   1.415       .  A
C1399      C1408   1.404       .  A
S1400      H1416   1.406       .  S
S1402      H1413   1.407       .  S
C1404      C1405   1.411       .  A
C1404      S1409   1.805       .  S
C1405      C1406   1.404       .  A
C1405      H1410   1.083       .  S
C1406      C1407   1.415       .  A
C1407      C1408   1.402       .  A
C1407      S1411   1.804       .  S
C1408      H1412   1.084       .  S
S1409      H1414   1.407       .  S
S1411      H1415   1.406       .  S
C1417      C1418   1.401       .  A
C1417      C1422   1.401       .  A
C1417      H1427   1.084       .  S
C1418      C1419   1.412       .  A
C1418      C1423   1.484       .  S
C1419      C1420   1.403       .  A
C1419      S1424   1.805       .  S
C1420      C1421   1.408       .  A
C1420      H1425   1.083       .  S
C1421      C1422   1.419       .  A
C1422      S1426   1.802       .  S
C1423      C1428   1.410       .  A
C1423      C1432   1.401       .  A
S1424      H1440   1.405       .  S
S1426      H1437   1.408       .  S
C1428      C1429   1.406       .  A
C1428      S1433   1.806       .  S
C1429      C1430   1.406       .  A
C1429      H1434   1.083       .  S
C1430      C1431   1.416       .  A
C1431      C1432   1.401       .  A
C1431      S1435   1.803       .  S
C1432      H1436   1.084       .  S
S1433      H1438   1.407       .  S
S1435      H1439   1.408       .  S
C1441      C1442   1.402       .  A
C1441      C1446   1.401       .  A
C1441      H1451   1.084       .  S
C1442      C1443   1.412       .  A
C1442      C1447   1.481       .  S
C1443      C1444   1.399       .  A
C1443      S1448   1.804       .  S
C1444      C1445   1.404       .  A
C1444      H1449   1.084       .  S
C1445      C1446   1.415       .  A
C1446      S1450   1.802       .  S
C1447      C1452   1.408       .  A
C1447      C1456   1.400       .  A
S1448      H1464   1.406       .  S
S1450      H1461   1.407       .  S
C1452      C1453   1.405       .  A
C1452      S1457   1.806       .  S
C1453      C1454   1.407       .  A
C1453      H1458   1.083       .  S
C1454      C1455   1.417       .  A
C1455      C1456   1.402       .  A
C1455      S1459   1.809       .  S
C1456      H1460   1.083       .  S
S1457      H1462   1.407       .  S
S1459      H1463   1.407       .  S
C1465      C1466   1.405       .  A
C1465      C1470   1.403       .  A
C1465      H1475   1.084       .  S
C1466      C1467   1.413       .  A
C1466      C1471   1.493       .  S
C1467      C1468   1.404       .  A
C1467      S1472   1.804       .  S
C1468      C1469   1.408       .  A
C1468      H1473   1.084       .  S
C1469      C1470   1.415       .  A
C1470      S1474   1.803       .  S
C1471      C1476   1.412       .  A
C1471      C1480   1.404       .  A
S1472      H1488   1.406       .  S
S1474      H1485   1.407       .  S
C1476      C1477   1.407       .  A
C1476      S1481   1.807       .  S
C1477      C1478   1.403       .  A
C1477      H1482   1.083       .  S
C1478      C1479   1.416       .  A
C1479      C1480   1.403       .  A
C1479      S1483   1.808       .  S
C1480      H1484   1.084       .  S
S1481      H1486   1.407       .  S
S1483      H1487   1.400       .  S
C1489      C1490   1.401       .  A
C1489      C1494   1.406       .  A
C1489      H1499   1.083       .  S
C1490      C1491   1.411       .  A
C1490      C1495   1.487       .  S
C1491      C1492   1.399       .  A
C1491      S1496   1.805       .  S
C1492      C1493   1.410       .  A
C1492      H1497   1.083       .  S
C1493      C1494   1.423       .  A
C1494      S1498   1.809       .  S
C1495      C1500   1.412       .  A
C1495      C1504   1.402       .  A
S1496      H1512   1.406       .  S
S1498      H1509   1.407       .  S
C1500      C1501   1.407       .  A
C1500      S1505   1.806       .  S
C1501      C1502   1.405       .  A
C1501      H1506   1.083       .  S
C1502      C1503   1.412       .  A
C1503      C1504   1.397       .  A
C1503      S1507   1.800       .  S
C1504      H1508   1.084       .  S
S1505      H1510   1.407       .  S
S1507      H1511   1.406       .  S
C1513      C1514   1.403       .  A
C1513      C1518   1.402       .  A
C1513      H1523   1.084       .  S
C1514      C1515   1.413       .  A
C1514      C1519   1.483       .  S
C1515      C1516   1.400       .  A
C1515      S1520   1.804       .  S
C1516      C1517   1.403       .  A
C1516      H1521   1.084       .  S
C1517      C1518   1.414       .  A
C1518      S1522   1.803       .  S
C1519      C1524   1.409       .  A
C1519      C1528   1.401       .  A
S1520      H1536   1.406       .  S
S1522      H1533   1.406       .  S
C1524      C1525   1.405       .  A
C1524      S1529   1.806       .  S
C1525      C1526   1.406       .  A
C1525      H1530   1.083       .  S
C1526      C1527   1.417       .  A
C1527      C1528   1.400       .  A
C1527      S1531   1.803       .  S
C1528      H1532   1.084       .  S
S1529      H1534   1.407       .  S
S1531      H1535   1.408       .  S
C1537      C1538   1.408       .  A
C1537      C1542   1.408       .  A
C1537      H1547   1.084       .  S
C1538      C1539   1.414       .  A
C1538      C1543   1.497       .  S
C1539      C1540   1.401       .  A
C1539      S1544   1.804       .  S
C1540      C1541   1.406       .  A
C1540      H1545   1.084       .  S
C1541      C1542   1.416       .  A
C1542      S1546   1.802       .  S
C1543      C1548   1.415       .  A
C1543      C1552   1.403       .  A
S1544      H1560   1.406       .  S
S1546      H1557   1.407       .  S
C1548      C1549   1.412       .  A
C1548      S1553   1.805       .  S
C1549      C1550   1.405       .  A
C1549      H1554   1.083       .  S
C1550      C1551   1.414       .  A
C1551      C1552   1.399       .  A
C1551      S1555   1.804       .  S
C1552      H1556   1.084       .  S
S1553      H1558   1.407       .  S
S1555      H1559   1.407       .  S
C1561      C1562   1.403       .  A
C1561      C1566   1.402       .  A
C1561      H1571   1.084       .  S
C1562      C1563   1.417       .  A
C1562      C1567   1.489       .  S
C1563      C1564   1.401       .  A
C1563      S1568   1.805       .  S
C1564      C1565   1.401       .  A
C1564      H1569   1.084       .  S
C1565      C1566   1.415       .  A
C1566      S1570   1.800       .  S
C1567      C1572   1.411       .  A
C1567      C1576   1.405       .  A
S1568      H1584   1.406       .  S
S1570      H1581   1.403       .  S
C1572      C1573   1.401       .  A
C1572      S1577   1.808       .  S
C1573      C1574   1.404       .  A
C1573      H1578   1.083       .  S
C1574      C1575   1.414       .  A
C1575      C1576   1.405       .  A
C1575      S1579   1.803       .  S
C1576      H1580   1.084       .  S
S1577      H1582   1.407       .  S
S1579      H1583   1.404       .  S
C1585      C1586   1.402       .  A
C1585      C1590   1.398       .  A
C1585      H1595   1.084       .  S
C1586      C1587   1.417       .  A
C1586      C1591   1.495       .  S
C1587      C1588   1.408       .  A
C1587      S1592   1.803       .  S
C1588      C1589   1.407       .  A
C1588      H1593   1.084       .  S
C1589      C1590   1.418       .  A
C1590      S1594   1.802       .  S
C1591      C1596   1.411       .  A
C1591      C1600   1.407       .  A
S1592      H1608   1.406       .  S
S1594      H1605   1.405       .  S
C1596      C1597   1.402       .  A
C1596      S1601   1.809       .  S
C1597      C1598   1.407       .  A
C1597      H1602   1.083       .  S
C1598      C1599   1.416       .  A
C1599      C1600   1.408       .  A
C1599      S1603   1.797       .  S
C1600      H1604   1.083       .  S
S1601      H1606   1.406       .  S
S1603      H1607   1.405       .  S
C1609      C1610   1.403       .  A
C1609      C1614   1.402       .  A
C1609      H1619   1.084       .  S
C1610      C1611   1.411       .  A
C1610      C1615   1.482       .  S
C1611      C1612   1.401       .  A
C1611      S1616   1.805       .  S
C1612      C1613   1.407       .  A
C1612      H1617   1.084       .  S
C1613      C1614   1.416       .  A
C1614      S1618   1.802       .  S
C1615      C1620   1.408       .  A
C1615      C1624   1.402       .  A
S1616      H1632   1.404       .  S
S1618      H1629   1.407       .  S
C1620      C1621   1.403       .  A
C1620      S1625   1.806       .  S
C1621      C1622   1.405       .  A
C1621      H1626   1.083       .  S
C1622      C1623   1.416       .  A
C1623      C1624   1.402       .  A
C1623      S1627   1.803       .  S
C1624      H1628   1.084       .  S
S1625      H1630   1.407       .  S
S1627      H1631   1.407       .  S
C1633      C1634   1.402       .  A
C1633      C1638   1.398       .  A
C1633      H1643   1.084       .  S
C1634      C1635   1.410       .  A
C1634      C1639   1.479       .  S
C1635      C1636   1.399       .  A
C1635      S1640   1.804       .  S
C1636      C1637   1.407       .  A
C1636      H1641   1.084       .  S
C1637      C1638   1.416       .  A
C1638      S1642   1.802       .  S
C1639      C1644   1.408       .  A
C1639      C1648   1.403       .  A
S1640      H1656   1.406       .  S
S1642      H1653   1.408       .  S
C1644      C1645   1.400       .  A
C1644      S1649   1.807       .  S
C1645      C1646   1.404       .  A
C1645      H1650   1.083       .  S
C1646      C1647   1.415       .  A
C1647      C1648   1.400       .  A
C1647      S1651   1.803       .  S
C1648      H1652   1.084       .  S
S1649      H1654   1.407       .  S
S1651      H1655   1.407       .  S
C1657      C1658   1.405       .  A
C1657      C1662   1.404       .  A
C1657      H1667   1.084       .  S
C1658      C1659   1.413       .  A
C1658      C1663   1.490       .  S
C1659      C1660   1.404       .  A
C1659      S1664   1.804       .  S
C1660      C1661   1.406       .  A
C1660      H1665   1.084       .  S
C1661      C1662   1.414       .  A
C1662      S1666   1.803       .  S
C1663      C1668   1.411       .  A
C1663      C1672   1.403       .  A
S1664      H1680   1.405       .  S
S1666      H1677   1.407       .  S
C1668      C1669   1.408       .  A
C1668      S1673   1.806       .  S
C1669      C1670   1.405       .  A
C1669      H1674   1.083       .  S
C1670      C1671   1.413       .  A
C1671      C1672   1.402       .  A
C1671      S1675   1.799       .  S
C1672      H1676   1.084       .  S
S1673      H1678   1.407       .  S
S1675      H1679   1.406       .  S
C1681      C1682   1.402       .  A
C1681      C1686   1.399       .  A
C1681      H1691   1.084       .  S
C1682      C1683   1.412       .  A
C1682      C1687   1.481       .  S
C1683      C1684   1.399       .  A
C1683      S1688   1.804       .  S
C1684      C1685   1.404       .  A
C1684      H1689   1.084       .  S
C1685      C1686   1.415       .  A
C1686      S1690   1.803       .  S
C1687      C1692   1.409       .  A
C1687      C1696   1.401       .  A
S1688      H1704   1.406       .  S
S1690      H1701   1.407       .  S
C1692      C1693   1.403       .  A
C1692      S1697   1.807       .  S
C1693      C1694   1.407       .  A
C1693      H1698   1.082       .  S
C1694      C1695   1.416       .  A
C1695      C1696   1.399       .  A
C1695      S1699   1.802       .  S
C1696      H1700   1.084       .  S
S1697      H1702   1.407       .  S
S1699      H1703   1.408       .  S
C1705      C1706   1.402       .  A
C1705      C1710   1.401       .  A
C1705      H1715   1.084       .  S
C1706      C1707   1.413       .  A
C1706      C1711   1.484       .  S
C1707      C1708   1.403       .  A
C1707      S1712   1.803       .  S
C1708      C1709   1.404       .  A
C1708      H1713   1.084       .  S
C1709      C1710   1.415       .  A
C1710      S1714   1.804       .  S
C1711      C1716   1.409       .  A
C1711      C1720   1.401       .  A
S1712      H1728   1.406       .  S
S1714      H1725   1.407       .  S
C1716      C1717   1.406       .  A
C1716      S1721   1.806       .  S
C1717      C1718   1.407       .  A
C1717      H1722   1.083       .  S
C1718      C1719   1.417       .  A
C1719      C1720   1.401       .  A
C1719      S1723   1.803       .  S
C1720      H1724   1.084       .  S
S1721      H1726   1.407       .  S
S1723      H1727   1.408       .  S
C1729      C1730   1.406       .  A
C1729      C1734   1.402       .  A
C1729      H1739   1.083       .  S
C1730      C1731   1.417       .  A
C1730      C1735   1.497       .  S
C1731      C1732   1.401       .  A
C1731      S1736   1.804       .  S
C1732      C1733   1.404       .  A
C1732      H1737   1.083       .  S
C1733      C1734   1.417       .  A
C1734      S1738   1.801       .  S
C1735      C1740   1.415       .  A
C1735      C1744   1.404       .  A
S1736      H1752   1.407       .  S
S1738      H1749   1.401       .  S
C1740      C1741   1.407       .  A
C1740      S1745   1.807       .  S
C1741      C1742   1.405       .  A
C1741      H1746   1.082       .  S
C1742      C1743   1.415       .  A
C1743      C1744   1.399       .  A
C1743      S1747   1.803       .  S
C1744      H1748   1.083       .  S
S1745      H1750   1.407       .  S
S1747      H1751   1.404       .  S
C1753      C1754   1.404       .  A
C1753      C1758   1.406       .  A
C1753      H1763   1.084       .  S
C1754      C1755   1.412       .  A
C1754      C1759   1.486       .  S
C1755      C1756   1.397       .  A
C1755      S1760   1.804       .  S
C1756      C1757   1.403       .  A
C1756      H1761   1.084       .  S
C1757      C1758   1.414       .  A
C1758      S1762   1.801       .  S
C1759      C1764   1.408       .  A
C1759      C1768   1.405       .  A
S1760      H1776   1.405       .  S
S1762      H1773   1.405       .  S
C1764      C1765   1.398       .  A
C1764      S1769   1.808       .  S
C1765      C1766   1.404       .  A
C1765      H1770   1.083       .  S
C1766      C1767   1.416       .  A
C1767      C1768   1.408       .  A
C1767      S1771   1.803       .  S
C1768      H1772   1.083       .  S
S1769      H1774   1.407       .  S
S1771      H1775   1.405       .  S
C1777      C1778   1.399       .  A
C1777      C1782   1.397       .  A
C1777      H1787   1.084       .  S
C1778      C1779   1.414       .  A
C1778      C1783   1.486       .  S
C1779      C1780   1.406       .  A
C1779      S1784   1.802       .  S
C1780      C1781   1.405       .  A
C1780      H1785   1.083       .  S
C1781      C1782   1.420       .  A
C1782      S1786   1.806       .  S
C1783      C1788   1.408       .  A
C1783      C1792   1.401       .  A
S1784      H1800   1.406       .  S
S1786      H1797   1.404       .  S
C1788      C1789   1.406       .  A
C1788      S1793   1.806       .  S
C1789      C1790   1.410       .  A
C1789      H1794   1.082       .  S
C1790      C1791   1.421       .  A
C1791      C1792   1.403       .  A
C1791      S1795   1.802       .  S
C1792      H1796   1.084       .  S
S1793      H1798   1.407       .  S
S1795      H1799   1.408       .  S
C1801      C1802   1.400       .  A
C1801      C1806   1.394       .  A
C1801      H1811   1.085       .  S
C1802      C1803   1.415       .  A
C1802      C1807   1.483       .  S
C1803      C1804   1.406       .  A
C1803      S1808   1.804       .  S
C1804      C1805   1.405       .  A
C1804      H1809   1.084       .  S
C1805      C1806   1.416       .  A
C1806      S1810   1.809       .  S
C1807      C1812   1.411       .  A
C1807      C1816   1.402       .  A
S1808      H1824   1.405       .  S
S1810      H1821   1.402       .  S
C1812      C1813   1.408       .  A
C1812      S1817   1.805       .  S
C1813      C1814   1.403       .  A
C1813      H1818   1.083       .  S
C1814      C1815   1.412       .  A
C1815      C1816   1.395       .  A
C1815      S1819   1.806       .  S
C1816      H1820   1.084       .  S
S1817      H1822   1.407       .  S
S1819      H1823   1.404       .  S
C1825      C1826   1.407       .  A
C1825      C1830   1.402       .  A
C1825      H1835   1.083       .  S
C1826      C1827   1.417       .  A
C1826      C1831   1.498       .  S
C1827      C1828   1.399       .  A
C1827      S1832   1.804       .  S
C1828      C1829   1.405       .  A
C1828      H1833   1.081       .  S
C1829      C1830   1.414       .  A
C1830      S1834   1.800       .  S
C1831      C1836   1.416       .  A
C1831      C1840   1.408       .  A
S1832      H1848   1.407       .  S
S1834      H1845   1.406       .  S
C1836      C1837   1.400       .  A
C1836      S1841   1.810       .  S
C1837      C1838   1.404       .  A
C1837      H1842   1.080       .  S
C1838      C1839   1.416       .  A
C1839      C1840   1.403       .  A
C1839      S1843   1.800       .  S
C1840      H1844   1.083       .  S
S1841      H1846   1.407       .  S
S1843      H1847   1.403       .  S
C1849      C1850   1.405       .  A
C1849      C1854   1.404       .  A
C1849      H1859   1.084       .  S
C1850      C1851   1.410       .  A
C1850      C1855   1.480       .  S
C1851      C1852   1.397       .  A
C1851      S1856   1.805       .  S
C1852      C1853   1.405       .  A
C1852      H1857   1.084       .  S
C1853      C1854   1.413       .  A
C1854      S1858   1.802       .  S
C1855      C1860   1.410       .  A
C1855      C1864   1.399       .  A
S1856      H1872   1.403       .  S
S1858      H1869   1.405       .  S
C1860      C1861   1.404       .  A
C1860      S1865   1.806       .  S
C1861      C1862   1.405       .  A
C1861      H1866   1.083       .  S
C1862      C1863   1.417       .  A
C1863      C1864   1.400       .  A
C1863      S1867   1.799       .  S
C1864      H1868   1.084       .  S
S1865      H1870   1.407       .  S
S1867      H1871   1.407       .  S
C1873      C1874   1.401       .  A
C1873      C1878   1.402       .  A
C1873      H1883   1.084       .  S
C1874      C1875   1.415       .  A
C1874      C1879   1.489       .  S
C1875      C1876   1.406       .  A
C1875      S1880   1.804       .  S
C1876      C1877   1.407       .  A
C1876      H1881   1.084       .  S
C1877      C1878   1.419       .  A
C1878      S1882   1.802       .  S
C1879      C1884   1.408       .  A
C1879      C1888   1.405       .  A
S1880      H1896   1.405       .  S
S1882      H1893   1.406       .  S
C1884      C1885   1.404       .  A
C1884      S1889   1.806       .  S
C1885      C1886   1.406       .  A
C1885      H1890   1.083       .  S
C1886      C1887   1.412       .  A
C1887      C1888   1.411       .  A
C1887      S1891   1.804       .  S
C1888      H1892   1.083       .  S
S1889      H1894   1.407       .  S
S1891      H1895   1.406       .  S
C1897      C1898   1.399       .  A
C1897      C1902   1.398       .  A
C1897      H1907   1.084       .  S
C1898      C1899   1.415       .  A
C1898      C1903   1.483       .  S
C1899      C1900   1.404       .  A
C1899      S1904   1.804       .  S
C1900      C1901   1.404       .  A
C1900      H1905   1.084       .  S
C1901      C1902   1.417       .  A
C1902      S1906   1.801       .  S
C1903      C1908   1.408       .  A
C1903      C1912   1.403       .  A
S1904      H1920   1.405       .  S
S1906      H1917   1.405       .  S
C1908      C1909   1.402       .  A
C1908      S1913   1.806       .  S
C1909      C1910   1.406       .  A
C1909      H1914   1.083       .  S
C1910      C1911   1.412       .  A
C1911      C1912   1.407       .  A
C1911      S1915   1.803       .  S
C1912      H1916   1.083       .  S
S1913      H1918   1.407       .  S
S1915      H1919   1.406       .  S
C1921      C1922   1.402       .  A
C1921      C1926   1.400       .  A
C1921      H1931   1.084       .  S
C1922      C1923   1.411       .  A
C1922      C1927   1.480       .  S
C1923      C1924   1.400       .  A
C1923      S1928   1.804       .  S
C1924      C1925   1.406       .  A
C1924      H1929   1.084       .  S
C1925      C1926   1.416       .  A
C1926      S1930   1.803       .  S
C1927      C1932   1.409       .  A
C1927      C1936   1.402       .  A
S1928      H1944   1.406       .  S
S1930      H1941   1.408       .  S
C1932      C1933   1.404       .  A
C1932      S1937   1.806       .  S
C1933      C1934   1.404       .  A
C1933      H1938   1.083       .  S
C1934      C1935   1.413       .  A
C1935      C1936   1.399       .  A
C1935      S1939   1.803       .  S
C1936      H1940   1.084       .  S
S1937      H1942   1.407       .  S
S1939      H1943   1.406       .  S
C1945      C1946   1.401       .  A
C1945      C1950   1.398       .  A
C1945      H1955   1.084       .  S
C1946      C1947   1.413       .  A
C1946      C1951   1.480       .  S
C1947      C1948   1.401       .  A
C1947      S1952   1.805       .  S
C1948      C1949   1.405       .  A
C1948      H1953   1.084       .  S
C1949      C1950   1.415       .  A
C1950      S1954   1.803       .  S
C1951      C1956   1.409       .  A
C1951      C1960   1.401       .  A
S1952      H1968   1.405       .  S
S1954      H1965   1.407       .  S
C1956      C1957   1.403       .  A
C1956      S1961   1.806       .  S
C1957      C1958   1.405       .  A
C1957      H1962   1.083       .  S
C1958      C1959   1.415       .  A
C1959      C1960   1.398       .  A
C1959      S1963   1.802       .  S
C1960      H1964   1.084       .  S
S1961      H1966   1.407       .  S
S1963      H1967   1.405       .  S
C1969      C1970   1.402       .  A
C1969      C1974   1.398       .  A
C1969      H1979   1.084       .  S
C1970      C1971   1.411       .  A
C1970      C1975   1.471       .  S
C1971      C1972   1.397       .  A
C1971      S1976   1.807       .  S
C1972      C1973   1.404       .  A
C1972      H1977   1.084       .  S
C1973      C1974   1.412       .  A
C1974      S1978   1.803       .  S
C1975      C1980   1.406       .  A
C1975      C1984   1.400       .  A
S1976      H1992   1.403       .  S
S1978      H1989   1.407       .  S
C1980      C1981   1.400       .  A
C1980      S1985   1.806       .  S
C1981      C1982   1.405       .  A
C1981      H1986   1.082       .  S
C1982      C1983   1.414       .  A
C1983      C1984   1.398       .  A
C1983      S1987   1.803       .  S
C1984      H1988   1.084       .  S
S1985      H1990   1.407       .  S
S1987      H1991   1.407       .  S
C1993      C1994   1.401       .  A
C1993      C1998   1.399       .  A
C1993      H2003   1.084       .  S
C1994      C1995   1.413       .  A
C1994      C1999   1.483       .  S
C1995      C1996   1.403       .  A
C1995      S2000   1.803       .  S
C1996      C1997   1.405       .  A
C1996      H2001   1.084       .  S
C1997      C1998   1.416       .  A
C1998      S2002   1.803       .  S
C1999      C2004   1.410       .  A
C1999      C2008   1.402       .  A
S2000      H2016   1.406       .  S
S2002      H2013   1.406       .  S
C2004      C2005   1.405       .  A
C2004      S2009   1.806       .  S
C2005      C2006   1.406       .  A
C2005      H2010   1.081       .  S
C2006      C2007   1.415       .  A
C2007      C2008   1.401       .  A
C2007      S2011   1.803       .  S
C2008      H2012   1.084       .  S
S2009      H2014   1.407       .  S
S2011      H2015   1.407       .  S
C2017      C2018   1.405       .  A
C2017      C2022   1.403       .  A
C2017      H2027   1.084       .  S
C2018      C2019   1.413       .  A
C2018      C2023   1.487       .  S
C2019      C2020   1.401       .  A
C2019      S2024   1.804       .  S
C2020      C2021   1.403       .  A
C2020      H2025   1.084       .  S
C2021      C2022   1.413       .  A
C2022      S2026   1.800       .  S
C2023      C2028   1.413       .  A
C2023      C2032   1.400       .  A
S2024      H2040   1.405       .  S
S2026      H2037   1.406       .  S
C2028      C2029   1.408       .  A
C2028      S2033   1.806       .  S
C2029      C2030   1.403       .  A
C2029      H2034   1.083       .  S
C2030      C2031   1.417       .  A
C2031      C2032   1.400       .  A
C2031      S2035   1.800       .  S
C2032      H2036   1.084       .  S
S2033      H2038   1.407       .  S
S2035      H2039   1.407       .  S
C2041      C2042   1.405       .  A
C2041      C2046   1.397       .  A
C2041      H2051   1.083       .  S
C2042      C2043   1.415       .  A
C2042      C2047   1.491       .  S
C2043      C2044   1.400       .  A
C2043      S2048   1.804       .  S
C2044      C2045   1.406       .  A
C2044      H2049   1.082       .  S
C2045      C2046   1.414       .  A
C2046      S2050   1.802       .  S
C2047      C2052   1.413       .  A
C2047      C2056   1.406       .  A
S2048      H2064   1.407       .  S
S2050      H2061   1.402       .  S
C2052      C2053   1.401       .  A
C2052      S2057   1.808       .  S
C2053      C2054   1.405       .  A
C2053      H2058   1.080       .  S
C2054      C2055   1.413       .  A
C2055      C2056   1.400       .  A
C2055      S2059   1.800       .  S
C2056      H2060   1.083       .  S
S2057      H2062   1.407       .  S
S2059      H2063   1.406       .  S
C2065      C2066   1.402       .  A
C2065      C2070   1.399       .  A
C2065      H2075   1.084       .  S
C2066      C2067   1.415       .  A
C2066      C2071   1.487       .  S
C2067      C2068   1.403       .  A
C2067      S2072   1.804       .  S
C2068      C2069   1.402       .  A
C2068      H2073   1.084       .  S
C2069      C2070   1.413       .  A
C2070      S2074   1.805       .  S
C2071      C2076   1.410       .  A
C2071      C2080   1.403       .  A
S2072      H2088   1.406       .  S
S2074      H2085   1.405       .  S
C2076      C2077   1.405       .  A
C2076      S2081   1.806       .  S
C2077      C2078   1.407       .  A
C2077      H2082   1.083       .  S
C2078      C2079   1.416       .  A
C2079      C2080   1.401       .  A
C2079      S2083   1.803       .  S
C2080      H2084   1.084       .  S
S2081      H2086   1.407       .  S
S2083      H2087   1.408       .  S
C2089      C2090   1.407       .  A
C2089      C2094   1.410       .  A
C2089      H2099   1.083       .  S
C2090      C2091   1.414       .  A
C2090      C2095   1.494   1_554  S
C2091      C2092   1.396       .  A
C2091      S2096   1.805       .  S
C2092      C2093   1.403       .  A
C2092      H2097   1.084       .  S
C2093      C2094   1.416       .  A
C2094      S2098   1.804       .  S
C2095      C2100   1.411       .  A
C2095      C2104   1.407       .  A
S2096      H2112   1.406   1_554  S
S2098      H2109   1.404       .  S
C2100      C2101   1.400       .  A
C2100      S2105   1.809       .  S
C2101      C2102   1.405       .  A
C2101      H2106   1.083       .  S
C2102      C2103   1.417       .  A
C2103      C2104   1.411       .  A
C2103      S2107   1.804       .  S
C2104      H2108   1.083       .  S
S2105      H2110   1.407       .  S
S2107      H2111   1.403       .  S
C2113      C2114   1.406       .  A
C2113      C2118   1.408       .  A
C2113      H2123   1.084       .  S
C2114      C2115   1.411       .  A
C2114      C2119   1.492       .  S
C2115      C2116   1.401       .  A
C2115      S2120   1.804       .  S
C2116      C2117   1.407       .  A
C2116      H2121   1.084       .  S
C2117      C2118   1.416       .  A
C2118      S2122   1.799       .  S
C2119      C2124   1.412       .  A
C2119      C2128   1.402       .  A
S2120      H2136   1.405       .  S
S2122      H2133   1.405       .  S
C2124      C2125   1.409       .  A
C2124      S2129   1.806       .  S
C2125      C2126   1.405       .  A
C2125      H2130   1.083       .  S
C2126      C2127   1.418       .  A
C2127      C2128   1.405       .  A
C2127      S2131   1.800       .  S
C2128      H2132   1.084       .  S
S2129      H2134   1.407       .  S
S2131      H2135   1.406       .  S
C2137      C2138   1.405       .  A
C2137      C2142   1.408       .  A
C2137      H2147   1.084       .  S
C2138      C2139   1.413       .  A
C2138      C2143   1.489   1_556  S
C2139      C2140   1.397       .  A
C2139      S2144   1.805       .  S
C2140      C2141   1.404       .  A
C2140      H2145   1.084       .  S
C2141      C2142   1.417       .  A
C2142      S2146   1.803       .  S
C2143      C2148   1.410       .  A
C2143      C2152   1.405       .  A
S2144      H2160   1.406       .  S
S2146      H2157   1.405       .  S
C2148      C2149   1.400       .  A
C2148      S2153   1.808       .  S
C2149      C2150   1.403       .  A
C2149      H2154   1.083       .  S
C2150      C2151   1.415       .  A
C2151      C2152   1.408       .  A
C2151      S2155   1.805       .  S
C2152      H2156   1.083   1_554  S
S2153      H2158   1.407       .  S
S2155      H2159   1.403       .  S
C2161      C2162   1.406       .  A
C2161      C2166   1.398       .  A
C2161      H2171   1.083       .  S
C2162      C2163   1.418       .  A
C2162      C2167   1.494       .  S
C2163      C2164   1.400       .  A
C2163      S2168   1.804       .  S
C2164      C2165   1.403       .  A
C2164      H2169   1.083       .  S
C2165      C2166   1.412       .  A
C2166      S2170   1.801       .  S
C2167      C2172   1.414       .  A
C2167      C2176   1.404       .  A
S2168      H2184   1.407       .  S
S2170      H2181   1.406       .  S
C2172      C2173   1.404       .  A
C2172      S2177   1.807       .  S
C2173      C2174   1.406       .  A
C2173      H2178   1.081       .  S
C2174      C2175   1.416       .  A
C2175      C2176   1.398       .  A
C2175      S2179   1.801       .  S
C2176      H2180   1.083       .  S
S2177      H2182   1.407       .  S
S2179      H2183   1.403       .  S
C2185      C2186   1.401       .  A
C2185      C2190   1.400       .  A
C2185      H2195   1.084       .  S
C2186      C2187   1.415       .  A
C2186      C2191   1.487       .  S
C2187      C2188   1.405       .  A
C2187      S2192   1.803       .  S
C2188      C2189   1.403       .  A
C2188      H2193   1.084       .  S
C2189      C2190   1.415       .  A
C2190      S2194   1.804       .  S
C2191      C2196   1.409       .  A
C2191      C2200   1.402       .  A
S2192      H2208   1.405       .  S
S2194      H2205   1.407       .  S
C2196      C2197   1.407       .  A
C2196      S2201   1.805       .  S
C2197      C2198   1.408       .  A
C2197      H2202   1.083       .  S
C2198      C2199   1.416       .  A
C2199      C2200   1.402       .  A
C2199      S2203   1.803       .  S
C2200      H2204   1.084       .  S
S2201      H2206   1.407       .  S
S2203      H2207   1.408       .  S
C2209      C2210   1.402       .  A
C2209      C2214   1.408       .  A
C2209      H2219   1.083       .  S
C2210      C2211   1.415       .  A
C2210      C2215   1.492       .  S
C2211      C2212   1.403       .  A
C2211      S2216   1.805       .  S
C2212      C2213   1.406       .  A
C2212      H2217   1.084       .  S
C2213      C2214   1.420       .  A
C2214      S2218   1.808       .  S
C2215      C2220   1.412       .  A
C2215      C2224   1.404       .  A
S2216      H2232   1.406       .  S
S2218      H2229   1.407       .  S
C2220      C2221   1.406       .  A
C2220      S2225   1.807       .  S
C2221      C2222   1.404       .  A
C2221      H2226   1.083       .  S
C2222      C2223   1.415       .  A
C2223      C2224   1.404       .  A
C2223      S2227   1.803       .  S
C2224      H2228   1.084       .  S
S2225      H2230   1.407       .  S
S2227      H2231   1.405       .  S
C2233      C2234   1.400       .  A
C2233      C2238   1.398       .  A
C2233      H2243   1.084       .  S
C2234      C2235   1.414       .  A
C2234      C2239   1.481       .  S
C2235      C2236   1.401       .  A
C2235      S2240   1.800       .  S
C2236      C2237   1.401       .  A
C2236      H2241   1.083       .  S
C2237      C2238   1.413       .  A
C2238      S2242   1.798       .  S
C2239      C2244   1.411       .  A
C2239      C2248   1.399       .  A
S2240      H2256   1.406       .  S
S2242      H2253   1.406       .  S
C2244      C2245   1.406       .  A
C2244      S2249   1.805       .  S
C2245      C2246   1.403       .  A
C2245      H2250   1.082       .  S
C2246      C2247   1.416       .  A
C2247      C2248   1.397       .  A
C2247      S2251   1.804       .  S
C2248      H2252   1.084       .  S
S2249      H2254   1.407       .  S
S2251      H2255   1.404       .  S
C2257      C2258   1.407       .  A
C2257      C2262   1.404       .  A
C2257      H2267   1.084       .  S
C2258      C2259   1.417       .  A
C2258      C2263   1.499       .  S
C2259      C2260   1.408       .  A
C2259      S2264   1.805       .  S
C2260      C2261   1.407       .  A
C2260      H2265   1.084       .  S
C2261      C2262   1.413       .  A
C2262      S2266   1.803       .  S
C2263      C2268   1.414       .  A
C2263      C2272   1.403       .  A
S2264      H2280   1.405       .  S
S2266      H2277   1.407       .  S
C2268      C2269   1.413       .  A
C2268      S2273   1.805       .  S
C2269      C2270   1.408       .  A
C2269      H2274   1.083       .  S
C2270      C2271   1.418       .  A
C2271      C2272   1.402       .  A
C2271      S2275   1.806       .  S
C2272      H2276   1.084       .  S
S2273      H2278   1.407       .  S
S2275      H2279   1.400       .  S
C2281      C2282   1.406   1_655  A
C2281      C2286   1.401       .  A
C2281      H2291   1.084   1_655  S
C2282      C2283   1.420   1_455  A
C2282      C2287   1.506       .  S
C2283      C2284   1.405       .  A
C2283      S2288   1.803   1_655  S
C2284      C2285   1.404       .  A
C2284      H2289   1.084       .  S
C2285      C2286   1.418       .  A
C2286      S2290   1.809       .  S
C2287      C2292   1.419       .  A
C2287      C2296   1.409       .  A
S2288      H2304   1.407       .  S
S2290      H2301   1.400       .  S
C2292      C2293   1.401       .  A
C2292      S2297   1.812       .  S
C2293      C2294   1.405       .  A
C2293      H2298   1.082       .  S
C2294      C2295   1.416       .  A
C2295      C2296   1.408       .  A
C2295      S2299   1.798       .  S
C2296      H2300   1.083       .  S
S2297      H2302   1.406       .  S
S2299      H2303   1.404       .  S
C2305      C2306   1.406       .  A
C2305      C2310   1.407   1_455  A
C2305      H2315   1.083       .  S
C2306      C2307   1.417   1_455  A
C2306      C2311   1.504       .  S
C2307      C2308   1.405       .  A
C2307      S2312   1.804   1_655  S
C2308      C2309   1.406       .  A
C2308      H2313   1.072       .  S
C2309      C2310   1.418       .  A
C2310      S2314   1.803       .  S
C2311      C2316   1.418       .  A
C2311      C2320   1.405       .  A
S2312      H2328   1.407       .  S
S2314      H2325   1.402       .  S
C2316      C2317   1.415       .  A
C2316      S2321   1.805       .  S
C2317      C2318   1.406       .  A
C2317      H2322   1.083       .  S
C2318      C2319   1.413       .  A
C2319      C2320   1.398       .  A
C2319      S2323   1.804       .  S
C2320      H2324   1.083       .  S
S2321      H2326   1.407       .  S
S2323      H2327   1.407       .  S
C2329      C2330   1.402       .  A
C2329      C2334   1.394       .  A
C2329      H2339   1.084       .  S
C2330      C2331   1.420       .  A
C2330      C2335   1.495       .  S
C2331      C2332   1.406       .  A
C2331      S2336   1.805       .  S
C2332      C2333   1.405       .  A
C2332      H2337   1.083       .  S
C2333      C2334   1.412       .  A
C2334      S2338   1.794       .  S
C2335      C2340   1.412       .  A
C2335      C2344   1.410       .  A
S2336      H2352   1.406       .  S
S2338      H2349   1.407       .  S
C2340      C2341   1.400       .  A
C2340      S2345   1.809       .  S
C2341      C2342   1.403       .  A
C2341      H2346   1.070       .  S
C2342      C2343   1.413       .  A
C2343      C2344   1.403       .  A
C2343      S2347   1.803       .  S
C2344      H2348   1.083       .  S
S2345      H2350   1.407       .  S
S2347      H2351   1.400       .  S
C2353      C2354   1.405       .  A
C2353      C2358   1.402       .  A
C2353      H2363   1.084       .  S
C2354      C2355   1.415       .  A
C2354      C2359   1.490       .  S
C2355      C2356   1.401       .  A
C2355      S2360   1.804       .  S
C2356      C2357   1.402       .  A
C2356      H2361   1.082       .  S
C2357      C2358   1.413       .  A
C2358      S2362   1.805       .  S
C2359      C2364   1.411       .  A
C2359      C2368   1.405       .  A
S2360      H2376   1.406       .  S
S2362      H2373   1.402       .  S
C2364      C2365   1.402       .  A
C2364      S2369   1.808       .  S
C2365      C2366   1.404       .  A
C2365      H2370   1.082       .  S
C2366      C2367   1.418       .  A
C2367      C2368   1.404       .  A
C2367      S2371   1.804       .  S
C2368      H2372   1.084       .  S
S2369      H2374   1.407       .  S
S2371      H2375   1.402       .  S
C2377      C2378   1.403       .  A
C2377      C2382   1.399       .  A
C2377      H2387   1.084       .  S
C2378      C2379   1.413       .  A
C2378      C2383   1.487       .  S
C2379      C2380   1.404       .  A
C2379      S2384   1.803       .  S
C2380      C2381   1.405       .  A
C2380      H2385   1.083       .  S
C2381      C2382   1.414       .  A
C2382      S2386   1.804       .  S
C2383      C2388   1.412       .  A
C2383      C2392   1.402       .  A
S2384      H2400   1.406       .  S
S2386      H2397   1.407       .  S
C2388      C2389   1.407       .  A
C2388      S2393   1.807       .  S
C2389      C2390   1.402       .  A
C2389      H2394   1.082       .  S
C2390      C2391   1.415       .  A
C2391      C2392   1.401       .  A
C2391      S2395   1.805       .  S
C2392      H2396   1.084       .  S
S2393      H2398   1.407       .  S
S2395      H2399   1.402       .  S
C2401      C2402   1.404       .  A
C2401      C2406   1.403       .  A
C2401      H2411   1.084       .  S
C2402      C2403   1.414       .  A
C2402      C2407   1.486       .  S
C2403      C2404   1.402       .  A
C2403      S2408   1.806       .  S
C2404      C2405   1.405       .  A
C2404      H2409   1.084       .  S
C2405      C2406   1.414       .  A
C2406      S2410   1.803       .  S
C2407      C2412   1.408       .  A
C2407      C2416   1.402       .  A
S2408      H2424   1.403       .  S
S2410      H2421   1.405       .  S
C2412      C2413   1.408       .  A
C2412      S2417   1.806       .  S
C2413      C2414   1.410       .  A
C2413      H2418   1.082       .  S
C2414      C2415   1.416       .  A
C2415      C2416   1.401       .  A
C2415      S2419   1.802       .  S
C2416      H2420   1.084       .  S
S2417      H2422   1.407       .  S
S2419      H2423   1.407       .  S
C2425      C2426   1.410       .  A
C2425      C2430   1.411       .  A
C2425      H2435   1.083       .  S
C2426      C2427   1.416       .  A
C2426      C2431   1.505       .  S
C2427      C2428   1.398       .  A
C2427      S2432   1.806       .  S
C2428      C2429   1.406       .  A
C2428      H2433   1.084       .  S
C2429      C2430   1.419       .  A
C2430      S2434   1.801       .  S
C2431      C2436   1.415       .  A
C2431      C2440   1.408       .  A
S2432      H2448   1.407       .  S
S2434      H2445   1.406       .  S
C2436      C2437   1.407       .  A
C2436      S2441   1.807       .  S
C2437      C2438   1.408       .  A
C2437      H2442   1.083       .  S
C2438      C2439   1.415       .  A
C2439      C2440   1.405       .  A
C2439      S2443   1.797       .  S
C2440      H2444   1.084       .  S
S2441      H2446   1.407       .  S
S2443      H2447   1.406       .  S
C2449      C2450   1.404       .  A
C2449      C2454   1.401       .  A
C2449      H2459   1.084       .  S
C2450      C2451   1.410       .  A
C2450      C2455   1.482       .  S
C2451      C2452   1.397       .  A
C2451      S2456   1.804       .  S
C2452      C2453   1.406       .  A
C2452      H2457   1.082       .  S
C2453      C2454   1.414       .  A
C2454      S2458   1.802       .  S
C2455      C2460   1.410       .  A
C2455      C2464   1.404       .  A
S2456      H2472   1.407       .  S
S2458      H2469   1.405       .  S
C2460      C2461   1.403       .  A
C2460      S2465   1.806       .  S
C2461      C2462   1.402       .  A
C2461      H2466   1.082       .  S
C2462      C2463   1.410       .  A
C2463      C2464   1.398       .  A
C2463      S2467   1.802       .  S
C2464      H2468   1.084       .  S
S2465      H2470   1.407       .  S
S2467      H2471   1.405       .  S
C2473      C2474   1.403       .  A
C2473      C2478   1.405       .  A
C2473      H2483   1.084       .  S
C2474      C2475   1.416       .  A
C2474      C2479   1.494       .  S
C2475      C2476   1.404       .  A
C2475      S2480   1.805       .  S
C2476      C2477   1.405       .  A
C2476      H2481   1.084       .  S
C2477      C2478   1.418       .  A
C2478      S2482   1.799       .  S
C2479      C2484   1.412       .  A
C2479      C2488   1.407       .  A
S2480      H2496   1.406       .  S
S2482      H2493   1.407       .  S
C2484      C2485   1.404       .  A
C2484      S2489   1.807       .  S
C2485      C2486   1.403       .  A
C2485      H2490   1.083       .  S
C2486      C2487   1.411       .  A
C2487      C2488   1.411       .  A
C2487      S2491   1.804       .  S
C2488      H2492   1.083       .  S
S2489      H2494   1.407       .  S
S2491      H2495   1.407       .  S
C2497      C2498   1.403       .  A
C2497      C2502   1.411       .  A
C2497      H2507   1.083       .  S
C2498      C2499   1.412       .  A
C2498      C2503   1.494       .  S
C2499      C2500   1.401       .  A
C2499      S2504   1.805       .  S
C2500      C2501   1.411       .  A
C2500      H2505   1.083       .  S
C2501      C2502   1.424       .  A
C2502      S2506   1.809       .  S
C2503      C2508   1.415       .  A
C2503      C2512   1.401       .  A
S2504      H2520   1.405       .  S
S2506      H2517   1.407       .  S
C2508      C2509   1.411       .  A
C2508      S2513   1.805       .  S
C2509      C2510   1.403       .  A
C2509      H2514   1.083       .  S
C2510      C2511   1.414       .  A
C2511      C2512   1.403       .  A
C2511      S2515   1.808       .  S
C2512      H2516   1.083       .  S
S2513      H2518   1.407       .  S
S2515      H2519   1.407       .  S
C2521      C2522   1.402       .  A
C2521      C2526   1.401       .  A
C2521      H2531   1.084       .  S
C2522      C2523   1.416       .  A
C2522      C2527   1.490       .  S
C2523      C2524   1.405       .  A
C2523      S2528   1.804       .  S
C2524      C2525   1.403       .  A
C2524      H2529   1.081       .  S
C2525      C2526   1.414       .  A
C2526      S2530   1.804       .  S
C2527      C2532   1.412       .  A
C2527      C2536   1.399       .  A
S2528      H2544   1.406       .  S
S2530      H2541   1.406       .  S
C2532      C2533   1.410       .  A
C2532      S2537   1.806       .  S
C2533      C2534   1.407       .  A
C2533      H2538   1.083       .  S
C2534      C2535   1.420       .  A
C2535      C2536   1.401       .  A
C2535      S2539   1.801       .  S
C2536      H2540   1.084       .  S
S2537      H2542   1.407       .  S
S2539      H2543   1.403       .  S
C2545      C2546   1.408       .  A
C2545      C2550   1.412       .  A
C2545      H2555   1.084       .  S
C2546      C2547   1.410       .  A
C2546      C2551   1.495       .  S
C2547      C2548   1.400       .  A
C2547      S2552   1.805       .  S
C2548      C2549   1.409       .  A
C2548      H2553   1.084       .  S
C2549      C2550   1.418       .  A
C2550      S2554   1.801       .  S
C2551      C2556   1.410       .  A
C2551      C2560   1.402       .  A
S2552      H2568   1.404       .  S
S2554      H2565   1.405       .  S
C2556      C2557   1.411       .  A
C2556      S2561   1.805       .  S
C2557      C2558   1.411       .  A
C2557      H2562   1.082       .  S
C2558      C2559   1.421       .  A
C2559      C2560   1.405       .  A
C2559      S2563   1.800       .  S
C2560      H2564   1.084       .  S
S2561      H2566   1.407       .  S
S2563      H2567   1.402       .  S
C2569      C2570   1.399       .  A
C2569      C2574   1.397       .  A
C2569      H2579   1.084       .  S
C2570      C2571   1.410       .  A
C2570      C2575   1.474       .  S
C2571      C2572   1.398       .  A
C2571      S2576   1.805       .  S
C2572      C2573   1.406       .  A
C2572      H2577   1.084       .  S
C2573      C2574   1.418       .  A
C2574      S2578   1.803       .  S
C2575      C2580   1.407       .  A
C2575      C2584   1.399       .  A
S2576      H2592   1.405       .  S
S2578      H2589   1.408       .  S
C2580      C2581   1.402       .  A
C2580      S2585   1.806       .  S
C2581      C2582   1.405       .  A
C2581      H2586   1.083       .  S
C2582      C2583   1.416       .  A
C2583      C2584   1.396       .  A
C2583      S2587   1.804       .  S
C2584      H2588   1.084       .  S
S2585      H2590   1.407       .  S
S2587      H2591   1.407       .  S
C2593      C2594   1.405       .  A
C2593      C2598   1.402       .  A
C2593      H2603   1.084       .  S
C2594      C2595   1.415       .  A
C2594      C2599   1.494       .  S
C2595      C2596   1.405       .  A
C2595      S2600   1.803       .  S
C2596      C2597   1.406       .  A
C2596      H2601   1.084       .  S
C2597      C2598   1.417       .  A
C2598      S2602   1.803       .  S
C2599      C2604   1.413       .  A
C2599      C2608   1.405       .  A
S2600      H2616   1.406       .  S
S2602      H2613   1.407       .  S
C2604      C2605   1.405       .  A
C2604      S2609   1.808       .  S
C2605      C2606   1.406       .  A
C2605      H2610   1.083       .  S
C2606      C2607   1.416       .  A
C2607      C2608   1.404       .  A
C2607      S2611   1.802       .  S
C2608      H2612   1.084       .  S
S2609      H2614   1.407       .  S
S2611      H2615   1.407       .  S
C2617      C2618   1.402       .  A
C2617      C2622   1.405       .  A
C2617      H2627   1.083       .  S
C2618      C2619   1.415       .  A
C2618      C2623   1.492       .  S
C2619      C2620   1.407       .  A
C2619      S2624   1.803       .  S
C2620      C2621   1.406       .  A
C2620      H2625   1.084       .  S
C2621      C2622   1.417       .  A
C2622      S2626   1.808       .  S
C2623      C2628   1.409       .  A
C2623      C2632   1.407       .  A
S2624      H2640   1.405       .  S
S2626      H2637   1.406       .  S
C2628      C2629   1.401       .  A
C2628      S2633   1.808       .  S
C2629      C2630   1.407       .  A
C2629      H2634   1.083       .  S
C2630      C2631   1.416       .  A
C2631      C2632   1.409       .  A
C2631      S2635   1.802       .  S
C2632      H2636   1.083       .  S
S2633      H2638   1.406       .  S
S2635      H2639   1.405       .  S
C2641      C2642   1.401       .  A
C2641      C2646   1.399       .  A
C2641      H2651   1.084       .  S
C2642      C2643   1.412       .  A
C2642      C2647   1.479       .  S
C2643      C2644   1.400       .  A
C2643      S2648   1.804       .  S
C2644      C2645   1.405       .  A
C2644      H2649   1.082       .  S
C2645      C2646   1.415       .  A
C2646      S2650   1.803       .  S
C2647      C2652   1.409       .  A
C2647      C2656   1.401       .  A
S2648      H2664   1.406       .  S
S2650      H2661   1.407       .  S
C2652      C2653   1.402       .  A
C2652      S2657   1.806       .  S
C2653      C2654   1.404       .  A
C2653      H2658   1.083       .  S
C2654      C2655   1.416       .  A
C2655      C2656   1.399       .  A
C2655      S2659   1.804       .  S
C2656      H2660   1.084       .  S
S2657      H2662   1.407       .  S
S2659      H2663   1.405       .  S
C2665      C2666   1.403       .  A
C2665      C2670   1.403       .  A
C2665      H2675   1.084       .  S
C2666      C2667   1.413       .  A
C2666      C2671   1.485       .  S
C2667      C2668   1.402       .  A
C2667      S2672   1.803       .  S
C2668      C2669   1.405       .  A
C2668      H2673   1.084       .  S
C2669      C2670   1.417       .  A
C2670      S2674   1.803       .  S
C2671      C2676   1.410       .  A
C2671      C2680   1.402       .  A
S2672      H2688   1.406       .  S
S2674      H2685   1.407       .  S
C2676      C2677   1.407       .  A
C2676      S2681   1.806       .  S
C2677      C2678   1.406       .  A
C2677      H2682   1.083       .  S
C2678      C2679   1.416       .  A
C2679      C2680   1.401       .  A
C2679      S2683   1.803       .  S
C2680      H2684   1.084       .  S
S2681      H2686   1.407       .  S
S2683      H2687   1.407       .  S
C2689      C2690   1.400       .  A
C2689      C2694   1.397       .  A
C2689      H2699   1.084       .  S
C2690      C2691   1.415       .  A
C2690      C2695   1.483       .  S
C2691      C2692   1.405       .  A
C2691      S2696   1.803       .  S
C2692      C2693   1.403       .  A
C2692      H2697   1.084       .  S
C2693      C2694   1.413       .  A
C2694      S2698   1.804       .  S
C2695      C2700   1.407       .  A
C2695      C2704   1.403       .  A
S2696      H2712   1.405       .  S
S2698      H2709   1.406       .  S
C2700      C2701   1.403       .  A
C2700      S2705   1.807       .  S
C2701      C2702   1.408       .  A
C2701      H2706   1.082       .  S
C2702      C2703   1.417       .  A
C2703      C2704   1.403       .  A
C2703      S2707   1.802       .  S
C2704      H2708   1.084       .  S
S2705      H2710   1.406       .  S
S2707      H2711   1.407       .  S
C2713      C2714   1.407       .  A
C2713      C2718   1.403       .  A
C2713      H2723   1.083       .  S
C2714      C2715   1.417       .  A
C2714      C2719   1.497       .  S
C2715      C2716   1.399       .  A
C2715      S2720   1.804       .  S
C2716      C2717   1.404       .  A
C2716      H2721   1.082       .  S
C2717      C2718   1.414       .  A
C2718      S2722   1.801       .  S
C2719      C2724   1.415       .  A
C2719      C2728   1.405       .  A
S2720      H2736   1.407       .  S
S2722      H2733   1.407       .  S
C2724      C2725   1.408       .  A
C2724      S2729   1.807       .  S
C2725      C2726   1.406       .  A
C2725      H2730   1.081       .  S
C2726      C2727   1.412       .  A
C2727      C2728   1.397       .  A
C2727      S2731   1.797       .  S
C2728      H2732   1.083       .  S
S2729      H2734   1.407       .  S
S2731      H2735   1.406       .  S
C2737      C2738   1.404       .  A
C2737      C2742   1.402       .  A
C2737      H2747   1.084       .  S
C2738      C2739   1.411       .  A
C2738      C2743   1.484       .  S
C2739      C2740   1.399       .  A
C2739      S2744   1.804       .  S
C2740      C2741   1.407       .  A
C2740      H2745   1.084       .  S
C2741      C2742   1.414       .  A
C2742      S2746   1.799       .  S
C2743      C2748   1.412       .  A
C2743      C2752   1.401       .  A
S2744      H2760   1.406       .  S
S2746      H2757   1.404       .  S
C2748      C2749   1.407       .  A
C2748      S2753   1.806       .  S
C2749      C2750   1.402       .  A
C2749      H2754   1.083       .  S
C2750      C2751   1.413       .  A
C2751      C2752   1.397       .  A
C2751      S2755   1.804       .  S
C2752      H2756   1.084       .  S
S2753      H2758   1.407       .  S
S2755      H2759   1.406       .  S
C2761      C2762   1.403       .  A
C2761      C2766   1.396       .  A
C2761      H2771   1.084       .  S
C2762      C2763   1.415       .  A
C2762      C2767   1.483       .  S
C2763      C2764   1.406       .  A
C2763      S2768   1.805       .  S
C2764      C2765   1.404       .  A
C2764      H2769   1.084       .  S
C2765      C2766   1.411       .  A
C2766      S2770   1.805       .  S
C2767      C2772   1.410       .  A
C2767      C2776   1.399       .  A
S2768      H2784   1.404       .  S
S2770      H2781   1.406       .  S
C2772      C2773   1.410       .  A
C2772      S2777   1.804       .  S
C2773      C2774   1.406       .  A
C2773      H2778   1.083       .  S
C2774      C2775   1.417       .  A
C2775      C2776   1.394       .  A
C2775      S2779   1.808       .  S
C2776      H2780   1.084       .  S
S2777      H2782   1.407       .  S
S2779      H2783   1.402       .  S
C2785      C2786   1.404       .  A
C2785      C2790   1.405       .  A
C2785      H2795   1.084       .  S
C2786      C2787   1.413       .  A
C2786      C2791   1.484       .  S
C2787      C2788   1.397       .  A
C2787      S2792   1.805       .  S
C2788      C2789   1.402       .  A
C2788      H2793   1.084       .  S
C2789      C2790   1.413       .  A
C2790      S2794   1.801       .  S
C2791      C2796   1.410       .  A
C2791      C2800   1.404       .  A
S2792      H2808   1.406       .  S
S2794      H2805   1.405       .  S
C2796      C2797   1.398       .  A
C2796      S2801   1.809       .  S
C2797      C2798   1.403       .  A
C2797      H2802   1.083       .  S
C2798      C2799   1.415       .  A
C2799      C2800   1.407       .  A
C2799      S2803   1.803       .  S
C2800      H2804   1.084       .  S
S2801      H2806   1.407       .  S
S2803      H2807   1.405       .  S
C2809      C2810   1.407       .  A
C2809      C2814   1.403       .  A
C2809      H2819   1.083       .  S
C2810      C2811   1.417       .  A
C2810      C2815   1.499       .  S
C2811      C2812   1.400       .  A
C2811      S2816   1.805       .  S
C2812      C2813   1.405       .  A
C2812      H2817   1.082       .  S
C2813      C2814   1.414       .  A
C2814      S2818   1.795       .  S
C2815      C2820   1.416       .  A
C2815      C2824   1.407       .  A
S2816      H2832   1.407       .  S
S2818      H2829   1.406       .  S
C2820      C2821   1.402       .  A
C2820      S2825   1.809       .  S
C2821      C2822   1.404       .  A
C2821      H2826   1.080       .  S
C2822      C2823   1.415       .  A
C2823      C2824   1.402       .  A
C2823      S2827   1.799       .  S
C2824      H2828   1.083       .  S
S2825      H2830   1.407       .  S
S2827      H2831   1.403       .  S
C2833      C2834   1.404       .  A
C2833      C2838   1.404       .  A
C2833      H2843   1.084       .  S
C2834      C2835   1.414       .  A
C2834      C2839   1.489       .  S
C2835      C2836   1.402       .  A
C2835      S2840   1.804       .  S
C2836      C2837   1.404       .  A
C2836      H2841   1.084       .  S
C2837      C2838   1.416       .  A
C2838      S2842   1.803       .  S
C2839      C2844   1.410       .  A
C2839      C2848   1.402       .  A
S2840      H2856   1.406       .  S
S2842      H2853   1.407       .  S
C2844      C2845   1.408       .  A
C2844      S2849   1.806       .  S
C2845      C2846   1.408       .  A
C2845      H2850   1.082       .  S
C2846      C2847   1.418       .  A
C2847      C2848   1.401       .  A
C2847      S2851   1.803       .  S
C2848      H2852   1.084       .  S
S2849      H2854   1.407       .  S
S2851      H2855   1.408       .  S
C2857      C2858   1.405       .  A
C2857      C2862   1.406       .  A
C2857      H2867   1.084       .  S
C2858      C2859   1.410       .  A
C2858      C2863   1.487       .  S
C2859      C2860   1.399       .  A
C2859      S2864   1.805       .  S
C2860      C2861   1.409       .  A
C2860      H2865   1.083       .  S
C2861      C2862   1.418       .  A
C2862      S2866   1.802       .  S
C2863      C2868   1.412       .  A
C2863      C2872   1.399       .  A
S2864      H2880   1.406       .  S
S2866      H2877   1.408       .  S
C2868      C2869   1.410       .  A
C2868      S2873   1.805       .  S
C2869      C2870   1.405       .  A
C2869      H2874   1.083       .  S
C2870      C2871   1.419       .  A
C2871      C2872   1.397       .  A
C2871      S2875   1.808       .  S
C2872      H2876   1.084       .  S
S2873      H2878   1.407       .  S
S2875      H2879   1.402       .  S
C2881      C2882   1.401       .  A
C2881      C2886   1.398       .  A
C2881      H2891   1.084       .  S
C2882      C2883   1.411       .  A
C2882      C2887   1.480       .  S
C2883      C2884   1.400       .  A
C2883      S2888   1.804       .  S
C2884      C2885   1.405       .  A
C2884      H2889   1.084       .  S
C2885      C2886   1.416       .  A
C2886      S2890   1.803       .  S
C2887      C2892   1.408       .  A
C2887      C2896   1.401       .  A
S2888      H2904   1.406       .  S
S2890      H2901   1.406       .  S
C2892      C2893   1.402       .  A
C2892      S2897   1.807       .  S
C2893      C2894   1.408       .  A
C2893      H2898   1.082       .  S
C2894      C2895   1.418       .  A
C2895      C2896   1.399       .  A
C2895      S2899   1.802       .  S
C2896      H2900   1.084       .  S
S2897      H2902   1.407       .  S
S2899      H2903   1.408       .  S
C2905      C2906   1.399       .  A
C2905      C2910   1.397       .  A
C2905      H2915   1.084       .  S
C2906      C2907   1.414       .  A
C2906      C2911   1.484       .  S
C2907      C2908   1.405       .  A
C2907      S2912   1.803       .  S
C2908      C2909   1.405       .  A
C2908      H2913   1.083       .  S
C2909      C2910   1.419       .  A
C2910      S2914   1.807       .  S
C2911      C2916   1.407       .  A
C2911      C2920   1.403       .  A
S2912      H2928   1.404       .  S
S2914      H2925   1.403       .  S
C2916      C2917   1.405       .  A
C2916      S2921   1.806       .  S
C2917      C2918   1.408       .  A
C2917      H2922   1.083       .  S
C2918      C2919   1.416       .  A
C2919      C2920   1.404       .  A
C2919      S2923   1.802       .  S
C2920      H2924   1.084       .  S
S2921      H2926   1.406       .  S
S2923      H2927   1.407       .  S
C2929      C2930   1.402       .  A
C2929      C2934   1.400       .  A
C2929      H2939   1.084       .  S
C2930      C2931   1.413       .  A
C2930      C2935   1.479       .  S
C2931      C2932   1.400       .  A
C2931      S2936   1.806       .  S
C2932      C2933   1.404       .  A
C2932      H2937   1.084       .  S
C2933      C2934   1.414       .  A
C2934      S2938   1.804       .  S
C2935      C2940   1.408       .  A
C2935      C2944   1.401       .  A
S2936      H2952   1.403       .  S
S2938      H2949   1.407       .  S
C2940      C2941   1.404       .  A
C2940      S2945   1.806       .  S
C2941      C2942   1.407       .  A
C2941      H2946   1.083       .  S
C2942      C2943   1.416       .  A
C2943      C2944   1.399       .  A
C2943      S2947   1.803       .  S
C2944      H2948   1.084       .  S
S2945      H2950   1.407       .  S
S2947      H2951   1.407       .  S
C2953      C2954   1.402       .  A
C2953      C2958   1.400       .  A
C2953      H2963   1.084       .  S
C2954      C2955   1.411       .  A
C2954      C2959   1.480       .  S
C2955      C2956   1.399       .  A
C2955      S2960   1.804       .  S
C2956      C2957   1.404       .  A
C2956      H2961   1.084       .  S
C2957      C2958   1.415       .  A
C2958      S2962   1.803       .  S
C2959      C2964   1.409       .  A
C2959      C2968   1.401       .  A
S2960      H2976   1.406       .  S
S2962      H2973   1.407       .  S
C2964      C2965   1.404       .  A
C2964      S2969   1.806       .  S
C2965      C2966   1.406       .  A
C2965      H2970   1.083       .  S
C2966      C2967   1.415       .  A
C2967      C2968   1.398       .  A
C2967      S2971   1.803       .  S
C2968      H2972   1.084       .  S
S2969      H2974   1.407       .  S
S2971      H2975   1.407       .  S
C2977      C2978   1.402       .  A
C2977      C2982   1.399       .  A
C2977      H2987   1.084       .  S
C2978      C2979   1.417       .  A
C2978      C2983   1.491       .  S
C2979      C2980   1.406       .  A
C2979      S2984   1.804       .  S
C2980      C2981   1.404       .  A
C2980      H2985   1.084       .  S
C2981      C2982   1.415       .  A
C2982      S2986   1.801       .  S
C2983      C2988   1.414       .  A
C2983      C2992   1.403       .  A
S2984      H3000   1.406       .  S
S2986      H2997   1.405       .  S
C2988      C2989   1.407       .  A
C2988      S2993   1.806       .  S
C2989      C2990   1.403       .  A
C2989      H2994   1.083       .  S
C2990      C2991   1.413       .  A
C2991      C2992   1.400       .  A
C2991      S2995   1.806       .  S
C2992      H2996   1.084       .  S
S2993      H2998   1.407       .  S
S2995      H2999   1.402       .  S
C3001      C3002   1.402       .  A
C3001      C3006   1.402       .  A
C3001      H3011   1.084       .  S
C3002      C3003   1.411       .  A
C3002      C3007   1.478       .  S
C3003      C3004   1.397       .  A
C3003      S3008   1.807       .  S
C3004      C3005   1.403       .  A
C3004      H3009   1.083       .  S
C3005      C3006   1.416       .  A
C3006      S3010   1.802       .  S
C3007      C3012   1.409       .  A
C3007      C3016   1.401       .  A
S3008      H3024   1.405       .  S
S3010      H3021   1.401       .  S
C3012      C3013   1.404       .  A
C3012      S3017   1.805       .  S
C3013      C3014   1.403       .  A
C3013      H3018   1.081       .  S
C3014      C3015   1.411       .  A
C3015      C3016   1.398       .  A
C3015      S3019   1.802       .  S
C3016      H3020   1.084       .  S
S3017      H3022   1.407       .  S
S3019      H3023   1.405       .  S
C3025      C3026   1.407       .  A
C3025      C3030   1.406       .  A
C3025      H3035   1.084       .  S
C3026      C3027   1.414       .  A
C3026      C3031   1.494       .  S
C3027      C3028   1.399       .  A
C3027      S3032   1.804       .  S
C3028      C3029   1.403       .  A
C3028      H3033   1.084       .  S
C3029      C3030   1.415       .  A
C3030      S3034   1.807       .  S
C3031      C3036   1.413       .  A
C3031      C3040   1.407       .  A
S3032      H3048   1.407       .  S
S3034      H3045   1.401       .  S
C3036      C3037   1.408       .  A
C3036      S3041   1.807       .  S
C3037      C3038   1.405       .  A
C3037      H3042   1.083       .  S
C3038      C3039   1.410       .  A
C3039      C3040   1.402       .  A
C3039      S3043   1.800       .  S
C3040      H3044   1.084       .  S
S3041      H3046   1.407       .  S
S3043      H3047   1.407       .  S
C3049      C3050   1.401       .  A
C3049      C3054   1.395       .  A
C3049      H3059   1.084       .  S
C3050      C3051   1.414       .  A
C3050      C3055   1.487       .  S
C3051      C3052   1.408       .  A
C3051      S3056   1.803       .  S
C3052      C3053   1.407       .  A
C3052      H3057   1.083       .  S
C3053      C3054   1.416       .  A
C3054      S3058   1.807       .  S
C3055      C3060   1.410       .  A
C3055      C3064   1.403   1_565  A
S3056      H3072   1.406       .  S
S3058      H3069   1.403       .  S
C3060      C3061   1.403   1_565  A
C3060      S3065   1.807       .  S
C3061      C3062   1.403       .  A
C3061      H3066   1.083       .  S
C3062      C3063   1.415       .  A
C3063      C3064   1.404       .  A
C3063      S3067   1.803       .  S
C3064      H3068   1.084       .  S
S3065      H3070   1.407       .  S
S3067      H3071   1.403       .  S
C3073      C3074   1.402       .  A
C3073      C3078   1.403       .  A
C3073      H3083   1.083       .  S
C3074      C3075   1.416       .  A
C3074      C3079   1.489       .  S
C3075      C3076   1.405       .  A
C3075      S3080   1.803       .  S
C3076      C3077   1.403       .  A
C3076      H3081   1.084       .  S
C3077      C3078   1.411       .  A
C3078      S3082   1.807       .  S
C3079      C3084   1.409       .  A
C3079      C3088   1.404       .  A
S3080      H3096   1.406       .  S
S3082      H3093   1.407       .  S
C3084      C3085   1.405       .  A
C3084      S3089   1.807       .  S
C3085      C3086   1.408       .  A
C3085      H3090   1.082       .  S
C3086      C3087   1.416       .  A
C3087      C3088   1.403       .  A
C3087      S3091   1.802       .  S
C3088      H3092   1.084       .  S
S3089      H3094   1.407       .  S
S3091      H3095   1.408       .  S
C3097      C3098   1.400       .  A
C3097      C3102   1.396       .  A
C3097      H3107   1.084       .  S
C3098      C3099   1.414       .  A
C3098      C3103   1.484       .  S
C3099      C3100   1.408       .  A
C3099      S3104   1.804       .  S
C3100      C3101   1.407       .  A
C3100      H3105   1.084       .  S
C3101      C3102   1.416       .  A
C3102      S3106   1.806       .  S
C3103      C3108   1.409       .  A
C3103      C3112   1.402   1_565  A
S3104      H3120   1.404       .  S
S3106      H3117   1.404       .  S
C3108      C3109   1.406   1_565  A
C3108      S3113   1.805       .  S
C3109      C3110   1.405       .  A
C3109      H3114   1.083       .  S
C3110      C3111   1.413       .  A
C3111      C3112   1.402       .  A
C3111      S3115   1.799       .  S
C3112      H3116   1.084       .  S
S3113      H3118   1.407       .  S
S3115      H3119   1.406       .  S
C3121      C3122   1.408       .  A
C3121      C3126   1.401       .  A
C3121      H3131   1.083       .  S
C3122      C3123   1.419       .  A
C3122      C3127   1.498       .  S
C3123      C3124   1.399       .  A
C3123      S3128   1.805       .  S
C3124      C3125   1.402       .  A
C3124      H3129   1.083       .  S
C3125      C3126   1.412       .  A
C3126      S3130   1.799       .  S
C3127      C3132   1.417       .  A
C3127      C3136   1.406       .  A
S3128      H3144   1.407       .  S
S3130      H3141   1.407       .  S
C3132      C3133   1.407       .  A
C3132      S3137   1.808       .  S
C3133      C3134   1.405       .  A
C3133      H3138   1.081       .  S
C3134      C3135   1.412       .  A
C3135      C3136   1.397       .  A
C3135      S3139   1.799       .  S
C3136      H3140   1.083       .  S
S3137      H3142   1.407       .  S
S3139      H3143   1.406       .  S
C3145      C3146   1.405       .  A
C3145      C3150   1.405       .  A
C3145      H3155   1.084       .  S
C3146      C3147   1.411       .  A
C3146      C3151   1.488       .  S
C3147      C3148   1.400       .  A
C3147      S3152   1.804       .  S
C3148      C3149   1.407       .  A
C3148      H3153   1.084       .  S
C3149      C3150   1.415       .  A
C3150      S3154   1.802       .  S
C3151      C3156   1.412       .  A
C3151      C3160   1.402       .  A
S3152      H3168   1.406       .  S
S3154      H3165   1.407       .  S
C3156      C3157   1.408       .  A
C3156      S3161   1.805       .  S
C3157      C3158   1.404       .  A
C3157      H3162   1.083       .  S
C3158      C3159   1.415       .  A
C3159      C3160   1.399       .  A
C3159      S3163   1.804       .  S
C3160      H3164   1.084       .  S
S3161      H3166   1.407       .  S
S3163      H3167   1.406       .  S
C3169      C3170   1.401       .  A
C3169      C3174   1.396       .  A
C3169      H3179   1.084       .  S
C3170      C3171   1.416       .  A
C3170      C3175   1.492       .  S
C3171      C3172   1.409       .  A
C3171      S3176   1.802       .  S
C3172      C3173   1.407       .  A
C3172      H3177   1.083       .  S
C3173      C3174   1.419       .  A
C3174      S3178   1.807       .  S
C3175      C3180   1.411       .  A
C3175      C3184   1.407       .  A
S3176      H3192   1.406       .  S
S3178      H3189   1.403       .  S
C3180      C3181   1.403       .  A
C3180      S3185   1.808       .  S
C3181      C3182   1.404       .  A
C3181      H3186   1.083       .  S
C3182      C3183   1.414       .  A
C3183      C3184   1.407       .  A
C3183      S3187   1.803       .  S
C3184      H3188   1.084       .  S
S3185      H3190   1.407       .  S
S3187      H3191   1.407       .  S
C3193      C3194   1.404       .  A
C3193      C3198   1.399       .  A
C3193      H3203   1.084       .  S
C3194      C3195   1.419       .  A
C3194      C3199   1.495       .  S
C3195      C3196   1.401       .  A
C3195      S3200   1.804       .  S
C3196      C3197   1.401       .  A
C3196      H3201   1.083       .  S
C3197      C3198   1.415       .  A
C3198      S3202   1.803       .  S
C3199      C3204   1.416       .  A
C3199      C3208   1.404       .  A
S3200      H3216   1.406       .  S
S3202      H3213   1.397       .  S
C3204      C3205   1.405       .  A
C3204      S3209   1.809       .  S
C3205      C3206   1.404       .  A
C3205      H3210   1.082       .  S
C3206      C3207   1.414       .  A
C3207      C3208   1.399       .  A
C3207      S3211   1.798       .  S
C3208      H3212   1.083       .  S
S3209      H3214   1.407       .  S
S3211      H3215   1.406       .  S
C3217      C3218   1.404       .  A
C3217      C3222   1.402       .  A
C3217      H3227   1.084       .  S
C3218      C3219   1.412       .  A
C3218      C3223   1.485       .  S
C3219      C3220   1.404       .  A
C3219      S3224   1.806       .  S
C3220      C3221   1.409       .  A
C3220      H3225   1.084       .  S
C3221      C3222   1.415       .  A
C3222      S3226   1.803       .  S
C3223      C3228   1.408       .  A
C3223      C3232   1.402       .  A
S3224      H3240   1.404       .  S
S3226      H3237   1.408       .  S
C3228      C3229   1.406       .  A
C3228      S3233   1.806       .  S
C3229      C3230   1.408       .  A
C3229      H3234   1.083       .  S
C3230      C3231   1.413       .  A
C3231      C3232   1.402       .  A
C3231      S3235   1.794       .  S
C3232      H3236   1.084       .  S
S3233      H3238   1.407       .  S
S3235      H3239   1.407       .  S
C3241      C3242   1.404       .  A
C3241      C3246   1.400       .  A
C3241      H3251   1.083       .  S
C3242      C3243   1.419       .  A
C3242      C3247   1.501   1_556  S
C3243      C3244   1.407       .  A
C3243      S3248   1.803       .  S
C3244      C3245   1.406       .  A
C3244      H3249   1.082       .  S
C3245      C3246   1.417       .  A
C3246      S3250   1.804       .  S
C3247      C3252   1.417       .  A
C3247      C3256   1.403       .  A
S3248      H3264   1.406       .  S
S3250      H3261   1.407       .  S
C3252      C3253   1.410       .  A
C3252      S3257   1.806       .  S
C3253      C3254   1.406       .  A
C3253      H3258   1.082       .  S
C3254      C3255   1.418       .  A
C3255      C3256   1.399       .  A
C3255      S3259   1.804       .  S
C3256      H3260   1.083   1_554  S
S3257      H3262   1.406       .  S
S3259      H3263   1.407       .  S
C3265      C3266   1.400       .  A
C3265      C3270   1.398       .  A
C3265      H3275   1.084       .  S
C3266      C3267   1.416       .  A
C3266      C3271   1.493       .  S
C3267      C3268   1.410       .  A
C3267      S3272   1.803       .  S
C3268      C3269   1.406       .  A
C3268      H3273   1.084       .  S
C3269      C3270   1.418       .  A
C3270      S3274   1.807       .  S
C3271      C3276   1.411       .  A
C3271      C3280   1.406       .  A
S3272      H3288   1.406       .  S
S3274      H3285   1.402       .  S
C3276      C3277   1.406       .  A
C3276      S3281   1.807       .  S
C3277      C3278   1.406       .  A
C3277      H3282   1.083       .  S
C3278      C3279   1.415       .  A
C3279      C3280   1.406       .  A
C3279      S3283   1.802       .  S
C3280      H3284   1.084       .  S
S3281      H3286   1.407       .  S
S3283      H3287   1.407       .  S
C3289      C3290   1.403       .  A
C3289      C3294   1.400       .  A
C3289      H3299   1.084       .  S
C3290      C3291   1.415       .  A
C3290      C3295   1.484   1_556  S
C3291      C3292   1.402       .  A
C3291      S3296   1.805       .  S
C3292      C3293   1.402       .  A
C3292      H3297   1.084       .  S
C3293      C3294   1.413       .  A
C3294      S3298   1.807       .  S
C3295      C3300   1.409       .  A
C3295      C3304   1.400       .  A
S3296      H3312   1.405       .  S
S3298      H3309   1.403       .  S
C3300      C3301   1.408       .  A
C3300      S3305   1.805       .  S
C3301      C3302   1.408       .  A
C3301      H3306   1.081       .  S
C3302      C3303   1.416       .  A
C3303      C3304   1.396       .  A
C3303      S3307   1.807       .  S
C3304      H3308   1.084       .  S
S3305      H3310   1.407       .  S
S3307      H3311   1.401       .  S
C3313      C3314   1.405       .  A
C3313      C3318   1.404       .  A
C3313      H3323   1.084       .  S
C3314      C3315   1.412       .  A
C3314      C3319   1.484       .  S
C3315      C3316   1.397       .  A
C3315      S3320   1.805       .  S
C3316      C3317   1.403       .  A
C3316      H3321   1.081       .  S
C3317      C3318   1.413       .  A
C3318      S3322   1.801       .  S
C3319      C3324   1.411       .  A
C3319      C3328   1.403       .  A
S3320      H3336   1.406       .  S
S3322      H3333   1.405       .  S
C3324      C3325   1.404       .  A
C3324      S3329   1.807       .  S
C3325      C3326   1.403       .  A
C3325      H3330   1.082       .  S
C3326      C3327   1.412       .  A
C3327      C3328   1.400       .  A
C3327      S3331   1.797       .  S
C3328      H3332   1.084       .  S
S3329      H3334   1.407       .  S
S3331      H3335   1.406       .  S
C3337      C3338   1.406       .  A
C3337      C3342   1.404       .  A
C3337      H3347   1.084       .  S
C3338      C3339   1.413       .  A
C3338      C3343   1.489       .  S
C3339      C3340   1.400       .  A
C3339      S3344   1.804       .  S
C3340      C3341   1.405       .  A
C3340      H3345   1.084       .  S
C3341      C3342   1.413       .  A
C3342      S3346   1.803       .  S
C3343      C3348   1.414       .  A
C3343      C3352   1.401       .  A
S3344      H3360   1.406       .  S
S3346      H3357   1.405       .  S
C3348      C3349   1.409       .  A
C3348      S3353   1.806       .  S
C3349      C3350   1.403       .  A
C3349      H3354   1.083       .  S
C3350      C3351   1.416       .  A
C3351      C3352   1.399       .  A
C3351      S3355   1.800       .  S
C3352      H3356   1.084       .  S
S3353      H3358   1.406       .  S
S3355      H3359   1.404       .  S
C3361      C3362   1.409       .  A
C3361      C3366   1.415       .  A
C3361      H3371   1.082       .  S
C3362      C3363   1.411       .  A
C3362      C3367   1.496       .  S
C3363      C3364   1.399       .  A
C3363      S3368   1.804       .  S
C3364      C3365   1.406       .  A
C3364      H3369   1.084       .  S
C3365      C3366   1.415       .  A
C3366      S3370   1.804       .  S
C3367      C3372   1.413       .  A
C3367      C3376   1.403       .  A
S3368      H3384   1.407       .  S
S3370      H3381   1.407       .  S
C3372      C3373   1.411       .  A
C3372      S3377   1.806       .  S
C3373      C3374   1.408       .  A
C3373      H3378   1.082       .  S
C3374      C3375   1.419       .  A
C3375      C3376   1.403       .  A
C3375      S3379   1.802       .  S
C3376      H3380   1.084       .  S
S3377      H3382   1.407       .  S
S3379      H3383   1.407       .  S
C3385      C3386   1.405       .  A
C3385      C3390   1.401       .  A
C3385      H3395   1.084       .  S
C3386      C3387   1.416       .  A
C3386      C3391   1.489       .  S
C3387      C3388   1.398       .  A
C3387      S3392   1.804       .  S
C3388      C3389   1.400       .  A
C3388      H3393   1.083       .  S
C3389      C3390   1.410       .  A
C3390      S3394   1.802       .  S
C3391      C3396   1.412       .  A
C3391      C3400   1.402       .  A
S3392      H3408   1.407       .  S
S3394      H3405   1.405       .  S
C3396      C3397   1.407       .  A
C3396      S3401   1.805       .  S
C3397      C3398   1.407       .  A
C3397      H3402   1.081       .  S
C3398      C3399   1.415       .  A
C3399      C3400   1.395       .  A
C3399      S3403   1.799       .  S
C3400      H3404   1.084       .  S
S3401      H3406   1.407       .  S
S3403      H3407   1.406       .  S
C3409      C3410   1.403       .  A
C3409      C3414   1.405       .  A
C3409      H3419   1.084       .  S
C3410      C3411   1.415       .  A
C3410      C3415   1.498       .  S
C3411      C3412   1.405       .  A
C3411      S3416   1.805       .  S
C3412      C3413   1.410       .  A
C3412      H3417   1.083       .  S
C3413      C3414   1.426       .  A
C3414      S3418   1.802       .  S
C3415      C3420   1.415       .  A
C3415      C3424   1.402       .  A
S3416      H3432   1.406       .  S
S3418      H3429   1.403       .  S
C3420      C3421   1.410       .  A
C3420      S3425   1.806       .  S
C3421      C3422   1.405       .  A
C3421      H3426   1.081       .  S
C3422      C3423   1.416       .  A
C3423      C3424   1.404       .  A
C3423      S3427   1.808       .  S
C3424      H3428   1.083       .  S
S3425      H3430   1.407       .  S
S3427      H3431   1.407       .  S
C3433      C3434   1.403       .  A
C3433      C3438   1.405       .  A
C3433      H3443   1.083       .  S
C3434      C3435   1.418       .  A
C3434      C3439   1.495       .  S
C3435      C3436   1.408       .  A
C3435      S3440   1.804       .  S
C3436      C3437   1.404       .  A
C3436      H3441   1.084       .  S
C3437      C3438   1.414       .  A
C3438      S3442   1.808       .  S
C3439      C3444   1.414       .  A
C3439      C3448   1.403       .  A
S3440      H3456   1.405       .  S
S3442      H3453   1.407       .  S
C3444      C3445   1.413       .  A
C3444      S3449   1.804       .  S
C3445      C3446   1.407       .  A
C3445      H3450   1.082       .  S
C3446      C3447   1.414       .  A
C3447      C3448   1.399       .  A
C3447      S3451   1.804       .  S
C3448      H3452   1.084       .  S
S3449      H3454   1.407       .  S
S3451      H3455   1.407       .  S
C3457      C3458   1.403       .  A
C3457      C3462   1.401       .  A
C3457      H3467   1.084       .  S
C3458      C3459   1.416       .  A
C3458      C3463   1.493       .  S
C3459      C3460   1.406       .  A
C3459      S3464   1.803       .  S
C3460      C3461   1.405       .  A
C3460      H3465   1.084       .  S
C3461      C3462   1.417       .  A
C3462      S3466   1.802       .  S
C3463      C3468   1.410       .  A
C3463      C3472   1.406       .  A
S3464      H3480   1.406       .  S
S3466      H3477   1.403       .  S
C3468      C3469   1.404       .  A
C3468      S3473   1.808       .  S
C3469      C3470   1.407       .  A
C3469      H3474   1.083       .  S
C3470      C3471   1.415       .  A
C3471      C3472   1.406       .  A
C3471      S3475   1.798       .  S
C3472      H3476   1.084       .  S
S3473      H3478   1.407       .  S
S3475      H3479   1.405       .  S
C3481      C3482   1.404       .  A
C3481      C3486   1.401       .  A
C3481      H3491   1.084       .  S
C3482      C3483   1.418       .  A
C3482      C3487   1.499       .  S
C3483      C3484   1.411       .  A
C3483      S3488   1.803       .  S
C3484      C3485   1.407       .  A
C3484      H3489   1.083       .  S
C3485      C3486   1.415       .  A
C3486      S3490   1.804       .  S
C3487      C3492   1.416       .  A
C3487      C3496   1.401       .  A
S3488      H3504   1.405       .  S
S3490      H3501   1.407       .  S
C3492      C3493   1.414       .  A
C3492      S3497   1.805       .  S
C3493      C3494   1.407       .  A
C3493      H3498   1.082       .  S
C3494      C3495   1.420       .  A
C3495      C3496   1.401       .  A
C3495      S3499   1.807       .  S
C3496      H3500   1.084       .  S
S3497      H3502   1.407       .  S
S3499      H3503   1.402       .  S
C3505      C3506   1.403       .  A
C3505      C3510   1.395       .  A
C3505      H3515   1.084       .  S
C3506      C3507   1.415       .  A
C3506      C3511   1.489       .  S
C3507      C3508   1.403       .  A
C3507      S3512   1.803       .  S
C3508      C3509   1.405       .  A
C3508      H3513   1.083       .  S
C3509      C3510   1.414       .  A
C3510      S3514   1.802       .  S
C3511      C3516   1.414       .  A
C3511      C3520   1.405       .  A
S3512      H3528   1.406       .  S
S3514      H3525   1.403       .  S
C3516      C3517   1.402       .  A
C3516      S3521   1.808       .  S
C3517      C3518   1.400       .  A
C3517      H3522   1.082       .  S
C3518      C3519   1.410       .  A
C3519      C3520   1.399       .  A
C3519      S3523   1.802       .  S
C3520      H3524   1.083       .  S
S3521      H3526   1.407       .  S
S3523      H3527   1.404       .  S
C3529      C3530   1.406       .  A
C3529      C3534   1.407       .  A
C3529      H3539   1.084       .  S
C3530      C3531   1.415       .  A
C3530      C3535   1.499       .  S
C3531      C3532   1.405       .  A
C3531      S3536   1.804       .  S
C3532      C3533   1.406       .  A
C3532      H3537   1.084       .  S
C3533      C3534   1.417       .  A
C3534      S3538   1.801       .  S
C3535      C3540   1.412       .  A
C3535      C3544   1.404       .  A
S3536      H3552   1.405       .  S
S3538      H3549   1.405       .  S
C3540      C3541   1.411       .  A
C3540      S3545   1.806       .  S
C3541      C3542   1.411       .  A
C3541      H3546   1.082       .  S
C3542      C3543   1.420       .  A
C3543      C3544   1.405       .  A
C3543      S3547   1.801       .  S
C3544      H3548   1.084       .  S
S3545      H3550   1.407       .  S
S3547      H3551   1.403       .  S
