geometry optimzed in LAMMPS
_audit_creation_date              2020-12-01 
_audit_creation_method            'lammps2cif' 
_symmetry_space_group_name_H-M    'P1' 
_symmetry_Int_Tables_number       1 
_symmetry_cell_setting            triclinic 
loop_ 
_symmetry_equiv_pos_as_xyz 
  x,y,z 
_cell_length_a                    42.62817041 
_cell_length_b                    42.62814413122726 
_cell_length_c                    26.202371607172807 
_cell_angle_alpha                 90.00009763532086 
_cell_angle_beta                  89.99815670795039 
_cell_angle_gamma                 119.99993893508395 
loop_ 
_atom_site_label 
_atom_site_type_symbol 
_atom_site_fract_x 
_atom_site_fract_y 
_atom_site_fract_z 
_atom_site_charge 
O1          O  0.47055078  0.23523408  0.07245515    -0.70000
O2          O  0.47054906  0.23532372  0.42753494    -0.70200
O3          O  0.47054411  0.19072044  0.99991849    -0.70000
O4          O  0.47053420  0.27982678  0.50007204    -0.70000
O5          O  0.02945640  0.30929225  0.99991364    -0.70000
O6          O  0.02946618  0.22018613  0.50006875    -0.70000
O7          O  0.02944816  0.26468708  0.42753018    -0.70000
O8          O  0.02944931  0.26477873  0.07245235    -0.70200
V9          V  0.47169186  0.23584986  0.99999492     1.35200
V10         V  0.02830794  0.26416224  0.49999113     1.35200
C11         C  0.00000032  0.25000642  0.09704638     0.79300
C12         C  0.99999708  0.25000475  0.40293984     0.79300
C13         C  0.50000613  0.19041269  0.49999473     0.79200
C14         C  0.49999431  0.30960020  0.49999284     0.79200
O15         O  0.47053481  0.27982899  0.25007073    -0.70000
O16         O  0.47053497  0.19071856  0.24991738    -0.70200
O17         O  0.47054727  0.23523490  0.32245534    -0.70000
O18         O  0.47054863  0.23532546  0.17753310    -0.70000
O19         O  0.02944755  0.26468467  0.17753188    -0.70000
O20         O  0.02944568  0.26477480  0.32245221    -0.70000
O21         O  0.02945782  0.22017974  0.25006980    -0.70000
O22         O  0.02945762  0.30929061  0.24991459    -0.70200
V23         V  0.47168865  0.23585063  0.24999401     1.35200
V24         V  0.02830479  0.26415878  0.24999205     1.35200
C25         C  0.99999603  0.30960110  0.24999300     0.79300
C26         C  0.99999636  0.19040792  0.24999404     0.79300
C27         C  0.99999770  0.25000536  0.34704639     0.79200
C28         C  0.99999815  0.25000512  0.15293980     0.79200
C29         C  0.03308308  0.03308828  0.50001610     0.04100
C30         C  0.03308245  0.00000616  0.50001737     0.04100
C31         C  0.00000028  0.46692480  0.50001387     0.04100
C32         C  0.46691886  0.46692566  0.50001304     0.04100
C33         C  0.46691978  0.00000793  0.50001363     0.04100
C34         C  0.00000181  0.03308911  0.50001472     0.04100
C35         C  0.03308192  0.03308880  0.25000536     0.04100
C36         C  0.03308284  0.00000741  0.25000518     0.04100
C37         C  0.00000138  0.46692514  0.25000339     0.04100
C38         C  0.46691932  0.46692454  0.24999944     0.04100
C39         C  0.46691853  0.00000568  0.24999693     0.04100
C40         C  0.99999962  0.03308778  0.25000119     0.04100
O41         O  0.23523058  0.47055723  0.42754532    -0.70000
O42         O  0.23532217  0.47055454  0.07246628    -0.70200
O43         O  0.19071488  0.47054375  0.50008799    -0.70000
O44         O  0.27982590  0.47054451  0.99992418    -0.70000
O45         O  0.30928683  0.02946716  0.50007933    -0.70000
O46         O  0.22017622  0.02946686  0.99993406    -0.70000
O47         O  0.26468081  0.02945330  0.07246663    -0.70000
O48         O  0.26477025  0.02945604  0.42754532    -0.70200
V49         V  0.23584710  0.47169721  0.50000590     1.35200
V50         V  0.26415490  0.02831365  0.00000619     1.35200
C51         C  0.25000053  0.00000704  0.40295269     0.79300
C52         C  0.25000177  0.00000415  0.09705905     0.79300
C53         C  0.19040411  0.50000506  0.50001346     0.79200
C54         C  0.30959771  0.50000593  0.50000076     0.79200
O55         O  0.26477316  0.02945326  0.17754361    -0.70000
O56         O  0.26468247  0.02945589  0.32246470    -0.70200
O57         O  0.30928640  0.02946151  0.25007892    -0.70000
O58         O  0.22018065  0.02947138  0.24992730    -0.70000
O59         O  0.19071467  0.47054855  0.25008520    -0.70000
O60         O  0.27982049  0.47053861  0.24992763    -0.70000
O61         O  0.23531908  0.47055706  0.32246767    -0.70000
O62         O  0.23522838  0.47055442  0.17754619    -0.70200
V63         V  0.26415691  0.02831312  0.25000386     1.35200
V64         V  0.23584432  0.47169692  0.25000689     1.35200
C65         C  0.25000081  0.00000308  0.15295232     0.79300
C66         C  0.25000068  0.00000675  0.34705880     0.79300
C67         C  0.30959401  0.99999858  0.25000072     0.79200
C68         C  0.19040713  0.00001170  0.25000554     0.79200
O69         O  0.19071466  0.22017992  0.99992302    -0.70000
O70         O  0.27982272  0.30929330  0.50007411    -0.70200
O71         O  0.23531994  0.26477608  0.42753834    -0.70000
O72         O  0.23522841  0.26468598  0.07245872    -0.70000
O73         O  0.26477067  0.23532944  0.07245895    -0.70000
O74         O  0.26468121  0.23523856  0.42753657    -0.70000
O75         O  0.30928647  0.27983392  0.99991927    -0.70000
O76         O  0.22017844  0.19072105  0.50007664    -0.70200
V77         V  0.23584516  0.26416014  0.49999838     1.35200
V78         V  0.26415557  0.23585435  0.49999785     1.35200
C79         C  0.19040569  0.19040890  0.50000020     0.79300
C80         C  0.30959571  0.30960542  0.49999684     0.79300
C81         C  0.25000037  0.25000714  0.40294505     0.79200
C82         C  0.24999961  0.25000783  0.09705149     0.79200
O83         O  0.26467887  0.23523952  0.17753691    -0.70000
O84         O  0.26476941  0.23532868  0.32245709    -0.70200
O85         O  0.22017473  0.19072260  0.25007557    -0.70000
O86         O  0.30928434  0.27983471  0.24991816    -0.70000
O87         O  0.27982162  0.30929483  0.25007507    -0.70000
O88         O  0.19071237  0.22018311  0.24992392    -0.70000
O89         O  0.23522834  0.26468639  0.32246056    -0.70000
O90         O  0.23531876  0.26477822  0.17753819    -0.70200
V91         V  0.26415303  0.23585511  0.24999690     1.35200
V92         V  0.23584382  0.26416208  0.24999937     1.35200
C93         C  0.24999869  0.25000902  0.15294492     0.79300
C94         C  0.24999918  0.25000748  0.34705123     0.79300
C95         C  0.19040214  0.19041147  0.25000039     0.79200
C96         C  0.30959384  0.30960640  0.24999628     0.79200
C97         C  0.15675499  0.15676383  0.25000257    -0.16700
C98         C  0.12848388  0.12849294  0.25000486     0.07400
C99         C  0.09538582  0.09539465  0.25000710     0.09200
C100        C  0.06711185  0.06711979  0.25000748    -0.17500
C101        C  0.34324113  0.34325448  0.24999574    -0.16700
C102        C  0.37151252  0.37152448  0.24999573     0.07400
C103        C  0.40461296  0.40462106  0.24999640     0.09200
C104        C  0.43288863  0.43289376  0.24999758    -0.17500
C105        C  0.15676102  0.00001465  0.25000331    -0.16700
C106        C  0.12848976  0.00001419  0.25000195     0.07400
C107        C  0.09538989  0.00001126  0.25000258     0.09200
C108        C  0.06711414  0.00000863  0.25000420    -0.17500
C109        C  0.43288743  0.00000430  0.24998977    -0.16700
C110        C  0.40461137  0.00000094  0.24998680     0.07400
C111        C  0.37151114  0.49999678  0.24998847     0.09200
C112        C  0.34323971  0.99999557  0.24999384    -0.17500
C113        C  0.15675889  0.15676030  0.50000161    -0.16700
C114        C  0.12848778  0.12848987  0.00000434     0.07400
C115        C  0.09538862  0.09539228  0.50000872     0.09200
C116        C  0.06711404  0.06711853  0.50001285    -0.17500
C117        C  0.43288773  0.43289566  0.50000999    -0.16700
C118        C  0.40461217  0.40462191  0.00000665     0.07400
C119        C  0.37151359  0.37152441  0.50000230     0.09200
C120        C  0.34324232  0.34325354  0.49999889    -0.17500
C121        C  0.06711267  0.00000569  0.50002065    -0.16700
C122        C  0.09538718  0.50000583  0.50002243     0.07400
C123        C  0.12848557  0.00000582  0.50002185     0.09200
C124        C  0.15675639  0.50000525  0.50001877    -0.17500
C125        C  0.34324567  0.50000653  0.49999990    -0.16700
C126        C  0.37151686  0.00000740  0.50000197     0.07400
C127        C  0.40461555  0.00000860  0.00000626     0.09200
C128        C  0.43288984  0.00000868  0.50001016    -0.17500
C129        C  0.99999836  0.06711786  0.24999999    -0.16700
C130        C  0.99999707  0.09539132  0.24999871     0.07400
C131        C  0.99999603  0.12848939  0.24999682     0.09200
C132        C  0.99999594  0.15675994  0.24999536    -0.17500
C133        C  0.00000165  0.43289479  0.25000327    -0.16700
C134        C  0.99999959  0.40461942  0.25000126     0.07400
C135        C  0.49999696  0.37151998  0.24999734     0.09200
C136        C  0.99999583  0.34324837  0.24999468    -0.17500
C137        C  0.50000909  0.15676671  0.49999855    -0.16700
C138        C  0.00000955  0.12849682  0.00000334     0.07400
C139        C  0.50000533  0.09539565  0.50000895     0.09200
C140        C  0.00000290  0.06712012  0.50001254    -0.17500
C141        C  0.99999910  0.43289373  0.50000854    -0.16700
C142        C  0.99999543  0.40461830  0.00000271     0.07400
C143        C  0.49999170  0.37151660  0.99999677     0.09200
C144        C  0.49999188  0.34324641  0.49999384    -0.17500
O145        O  0.47055067  0.23523426  0.57245523    -0.70000
O146        O  0.47054940  0.23532363  0.92753470    -0.70200
O147        O  0.47054331  0.19072044  0.49991857    -0.70000
O148        O  0.47053374  0.27982634  0.00007192    -0.70000
O149        O  0.02945709  0.30929212  0.49991370    -0.70000
O150        O  0.02946672  0.22018667  0.00006890    -0.70000
O151        O  0.02944782  0.26468719  0.92752991    -0.70000
O152        O  0.02944934  0.26477836  0.57245235    -0.70200
V153        V  0.47169176  0.23585010  0.49999503     1.35200
V154        V  0.02830794  0.26416259  0.99999115     1.35200
C155        C  0.00000029  0.25000633  0.59704617     0.79300
C156        C  0.99999864  0.25000553  0.90293981     0.79300
C157        C  0.50000715  0.19041368  0.99999473     0.79200
C158        C  0.49999329  0.30959916  0.99999284     0.79200
O159        O  0.47053482  0.27982898  0.75007092    -0.70000
O160        O  0.47053498  0.19071844  0.74991748    -0.70200
O161        O  0.47054721  0.23523478  0.82245531    -0.70000
O162        O  0.47054863  0.23532541  0.67753310    -0.70000
O163        O  0.02944755  0.26468450  0.67753181    -0.70000
O164        O  0.02944614  0.26477490  0.82245206    -0.70000
O165        O  0.02945777  0.22017961  0.75006980    -0.70000
O166        O  0.02945766  0.30929051  0.74991452    -0.70200
V167        V  0.47168864  0.23585056  0.74999414     1.35200
V168        V  0.02830478  0.26415861  0.74999211     1.35200
C169        C  0.99999606  0.30960095  0.74999293     0.79300
C170        C  0.99999627  0.19040768  0.74999402     0.79300
C171        C  0.99999627  0.25000455  0.84704626     0.79200
C172        C  0.99999819  0.25000512  0.65293998     0.79200
C173        C  0.03308315  0.03308869  0.00001601     0.04100
C174        C  0.03308255  0.00000574  0.00001728     0.04100
C175        C  0.00000010  0.46692531  0.00001414     0.04100
C176        C  0.46691875  0.46692533  0.00001302     0.04100
C177        C  0.46691993  0.00000838  0.00001364     0.04100
C178        C  0.00000190  0.03308867  0.00001482     0.04100
C179        C  0.03308187  0.03308876  0.75000539     0.04100
C180        C  0.03308286  0.00000742  0.75000504     0.04100
C181        C  0.00000154  0.46692523  0.75000332     0.04100
C182        C  0.46691933  0.46692449  0.74999945     0.04100
C183        C  0.46691864  0.00000576  0.74999692     0.04100
C184        C  0.99999970  0.03308789  0.75000122     0.04100
O185        O  0.23523058  0.47055751  0.92754521    -0.70000
O186        O  0.23532217  0.47055424  0.57246648    -0.70200
O187        O  0.19071488  0.47054404  0.00008794    -0.70000
O188        O  0.27982606  0.47054427  0.49992425    -0.70000
O189        O  0.30928698  0.02946733  0.00007916    -0.70000
O190        O  0.22017608  0.02946660  0.49993403    -0.70000
O191        O  0.26468069  0.02945311  0.57246677    -0.70000
O192        O  0.26477036  0.02945622  0.92754514    -0.70200
V193        V  0.23584705  0.47169752  0.00000578     1.35200
V194        V  0.26415479  0.02831340  0.50000632     1.35200
C195        C  0.25000074  0.00000751  0.90295266     0.79300
C196        C  0.25000148  0.00000364  0.59705930     0.79300
C197        C  0.19040385  0.50000540  0.00001338     0.79200
C198        C  0.30959789  0.50000605  0.00000070     0.79200
O199        O  0.26477301  0.02945300  0.67754354    -0.70000
O200        O  0.26468256  0.02945610  0.82246456    -0.70200
O201        O  0.30928646  0.02946155  0.75007866    -0.70000
O202        O  0.22018065  0.02947137  0.74992713    -0.70000
O203        O  0.19071474  0.47054860  0.75008526    -0.70000
O204        O  0.27982045  0.47053865  0.74992770    -0.70000
O205        O  0.23531913  0.47055734  0.82246782    -0.70000
O206        O  0.23522834  0.47055419  0.67754640    -0.70200
V207        V  0.26415691  0.02831310  0.75000371     1.35200
V208        V  0.23584434  0.47169692  0.75000699     1.35200
C209        C  0.25000087  0.00000305  0.65295228     0.79300
C210        C  0.25000064  0.00000671  0.84705873     0.79300
C211        C  0.30959402  0.99999846  0.75000074     0.79200
C212        C  0.19040700  0.00001136  0.75000539     0.79200
O213        O  0.19071450  0.22017995  0.49992285    -0.70000
O214        O  0.27982284  0.30929315  0.00007408    -0.70200
O215        O  0.23532018  0.26477591  0.92753836    -0.70000
O216        O  0.23522830  0.26468588  0.57245858    -0.70000
O217        O  0.26477068  0.23532946  0.57245883    -0.70000
O218        O  0.26468144  0.23523837  0.92753669    -0.70000
O219        O  0.30928641  0.27983413  0.49991924    -0.70000
O220        O  0.22017845  0.19072088  0.00007680    -0.70200
V221        V  0.23584528  0.26416009  0.99999854     1.35200
V222        V  0.26415562  0.23585427  0.99999787     1.35200
C223        C  0.19040556  0.19040879  0.00000031     0.79300
C224        C  0.30959582  0.30960565  0.99999695     0.79300
C225        C  0.24999999  0.25000756  0.90294498     0.79200
C226        C  0.24999912  0.25000822  0.59705135     0.79200
O227        O  0.26467863  0.23523969  0.67753671    -0.70000
O228        O  0.26476940  0.23532888  0.82245716    -0.70200
O229        O  0.22017466  0.19072260  0.75007554    -0.70000
O230        O  0.30928434  0.27983472  0.74991791    -0.70000
O231        O  0.27982160  0.30929481  0.75007536    -0.70000
O232        O  0.19071236  0.22018314  0.74992391    -0.70000
O233        O  0.23522816  0.26468643  0.82246051    -0.70000
O234        O  0.23531871  0.26477857  0.67753821    -0.70200
V235        V  0.26415303  0.23585514  0.74999680     1.35200
V236        V  0.23584386  0.26416213  0.74999944     1.35200
C237        C  0.24999893  0.25000879  0.65294478     0.79300
C238        C  0.24999964  0.25000695  0.84705139     0.79300
C239        C  0.19040216  0.19041154  0.75000048     0.79200
C240        C  0.30959394  0.30960647  0.74999637     0.79200
C241        C  0.15675487  0.15676379  0.75000256    -0.16700
C242        C  0.12848396  0.12849308  0.75000486     0.07400
C243        C  0.09538572  0.09539459  0.75000724     0.09200
C244        C  0.06711193  0.06711995  0.75000731    -0.17500
C245        C  0.34324101  0.34325445  0.74999576    -0.16700
C246        C  0.37151262  0.37152457  0.74999586     0.07400
C247        C  0.40461289  0.40462104  0.74999661     0.09200
C248        C  0.43288869  0.43289385  0.74999773    -0.17500
C249        C  0.15676092  0.00001448  0.75000323    -0.16700
C250        C  0.12848981  0.00001416  0.75000177     0.07400
C251        C  0.09538994  0.00001134  0.75000232     0.09200
C252        C  0.06711416  0.00000863  0.75000392    -0.17500
C253        C  0.43288742  0.00000430  0.74998976    -0.16700
C254        C  0.40461144  0.00000091  0.74998658     0.07400
C255        C  0.37151123  0.49999673  0.74998840     0.09200
C256        C  0.34323980  0.99999555  0.74999373    -0.17500
C257        C  0.15675894  0.15676050  0.00000180    -0.16700
C258        C  0.12848791  0.12848998  0.50000413     0.07400
C259        C  0.09538894  0.09539243  0.00000878     0.09200
C260        C  0.06711397  0.06711836  0.00001304    -0.17500
C261        C  0.43288780  0.43289614  0.00000996    -0.16700
C262        C  0.40461253  0.40462193  0.50000660     0.07400
C263        C  0.37151377  0.37152483  0.00000207     0.09200
C264        C  0.34324223  0.34325336  0.99999877    -0.17500
C265        C  0.06711225  0.00000552  0.00002067    -0.16700
C266        C  0.09538740  0.50000559  0.00002245     0.07400
C267        C  0.12848518  0.00000577  0.00002168     0.09200
C268        C  0.15675667  0.50000544  0.00001877    -0.17500
C269        C  0.34324526  0.50000659  0.00000001    -0.16700
C270        C  0.37151652  0.00000744  0.00000186     0.07400
C271        C  0.40461521  0.00000839  0.50000631     0.09200
C272        C  0.43288965  0.00000877  0.00001005    -0.17500
C273        C  0.99999847  0.06711791  0.75000013    -0.16700
C274        C  0.99999704  0.09539142  0.74999889     0.07400
C275        C  0.99999604  0.12848930  0.74999701     0.09200
C276        C  0.99999587  0.15675999  0.74999546    -0.17500
C277        C  0.00000163  0.43289483  0.75000298    -0.16700
C278        C  0.99999966  0.40461945  0.75000087     0.07400
C279        C  0.49999692  0.37151984  0.74999730     0.09200
C280        C  0.99999596  0.34324847  0.74999443    -0.17500
C281        C  0.50001058  0.15676690  0.99999839    -0.16700
C282        C  0.00000852  0.12849543  0.50000334     0.07400
C283        C  0.50000614  0.09539544  0.00000895     0.09200
C284        C  0.00000324  0.06712105  0.00001238    -0.17500
C285        C  0.99999845  0.43289271  0.00000864    -0.16700
C286        C  0.99999612  0.40461779  0.50000267     0.07400
C287        C  0.49999274  0.37151786  0.49999663     0.09200
C288        C  0.49999067  0.34324651  0.99999369    -0.17500
O289        O  0.47055063  0.73523402  0.07245510    -0.70000
O290        O  0.47054909  0.73532379  0.42753496    -0.70200
O291        O  0.47054409  0.69072052  0.99991849    -0.70000
O292        O  0.47053425  0.77982683  0.50007211    -0.70000
O293        O  0.02945646  0.80929227  0.99991370    -0.70000
O294        O  0.02946610  0.72018609  0.50006880    -0.70000
O295        O  0.02944790  0.76468697  0.42753007    -0.70000
O296        O  0.02944955  0.76477883  0.07245231    -0.70200
V297        V  0.47169188  0.73584995  0.99999498     1.35200
V298        V  0.02830791  0.76416223  0.49999116     1.35200
C299        C  0.99999962  0.75000609  0.09704638     0.79300
C300        C  0.99999808  0.75000528  0.40293986     0.79300
C301        C  0.50000620  0.69041281  0.49999471     0.79200
C302        C  0.49999413  0.80960007  0.49999286     0.79200
O303        O  0.47053486  0.77982902  0.25007068    -0.70000
O304        O  0.47053508  0.69071858  0.24991737    -0.70200
O305        O  0.47054725  0.73523487  0.32245529    -0.70000
O306        O  0.47054887  0.73532553  0.17753299    -0.70000
O307        O  0.02944738  0.76468456  0.17753180    -0.70000
O308        O  0.02944592  0.76477489  0.32245210    -0.70000
O309        O  0.02945777  0.72017974  0.25006979    -0.70000
O310        O  0.02945762  0.80929063  0.24991459    -0.70200
V311        V  0.47168867  0.73585064  0.24999400     1.35200
V312        V  0.02830478  0.76415877  0.24999207     1.35200
C313        C  0.99999616  0.80960116  0.24999300     0.79300
C314        C  0.99999640  0.69040790  0.24999404     0.79300
C315        C  0.99999671  0.75000490  0.34704637     0.79200
C316        C  0.99999891  0.75000552  0.15293980     0.79200
C317        C  0.03308311  0.53308828  0.50001610     0.04100
C318        C  0.03308239  0.50000624  0.50001737     0.04100
C319        C  0.00000016  0.96692483  0.50001387     0.04100
C320        C  0.46691874  0.96692554  0.50001304     0.04100
C321        C  0.46691984  0.50000786  0.50001363     0.04100
C322        C  0.00000181  0.53308910  0.50001472     0.04100
C323        C  0.03308191  0.53308880  0.25000537     0.04100
C324        C  0.03308292  0.50000740  0.25000519     0.04100
C325        C  0.00000143  0.96692518  0.25000338     0.04100
C326        C  0.46691935  0.96692452  0.24999948     0.04100
C327        C  0.46691859  0.50000571  0.24999683     0.04100
C328        C  0.99999975  0.53308785  0.25000115     0.04100
O329        O  0.23523048  0.97055731  0.42754531    -0.70000
O330        O  0.23532222  0.97055454  0.07246630    -0.70200
O331        O  0.19071491  0.97054380  0.50008814    -0.70000
O332        O  0.27982607  0.97054453  0.99992415    -0.70000
O333        O  0.30928695  0.52946707  0.50007923    -0.70000
O334        O  0.22017609  0.52946687  0.99993395    -0.70000
O335        O  0.26468072  0.52945329  0.07246665    -0.70000
O336        O  0.26477032  0.52945597  0.42754531    -0.70200
V337        V  0.23584707  0.97169725  0.50000589     1.35200
V338        V  0.26415484  0.52831366  0.00000620     1.35200
C339        C  0.25000057  0.50000695  0.40295269     0.79300
C340        C  0.25000168  0.50000410  0.09705905     0.79300
C341        C  0.19040390  0.00000510  0.50001347     0.79200
C342        C  0.30959798  0.00000598  0.50000075     0.79200
O343        O  0.26477304  0.52945319  0.17754362    -0.70000
O344        O  0.26468244  0.52945581  0.32246471    -0.70200
O345        O  0.30928635  0.52946143  0.25007881    -0.70000
O346        O  0.22018061  0.52947134  0.24992742    -0.70000
O347        O  0.19071471  0.97054860  0.25008520    -0.70000
O348        O  0.27982043  0.97053867  0.24992763    -0.70000
O349        O  0.23531908  0.97055715  0.32246768    -0.70000
O350        O  0.23522842  0.97055452  0.17754620    -0.70200
V351        V  0.26415684  0.52831305  0.25000387     1.35200
V352        V  0.23584433  0.97169700  0.25000689     1.35200
C353        C  0.25000075  0.50000303  0.15295233     0.79300
C354        C  0.25000066  0.50000666  0.34705880     0.79300
C355        C  0.30959382  0.49999836  0.25000063     0.79200
C356        C  0.19040712  0.50001166  0.25000558     0.79200
O357        O  0.19071472  0.72017997  0.99992296    -0.70000
O358        O  0.27982278  0.80929330  0.50007419    -0.70200
O359        O  0.23531998  0.76477612  0.42753838    -0.70000
O360        O  0.23522859  0.76468589  0.07245878    -0.70000
O361        O  0.26477085  0.73532936  0.07245888    -0.70000
O362        O  0.26468123  0.73523859  0.42753653    -0.70000
O363        O  0.30928661  0.77983398  0.99991927    -0.70000
O364        O  0.22017854  0.69072101  0.50007677    -0.70200
V365        V  0.23584525  0.76416013  0.49999842     1.35200
V366        V  0.26415572  0.73585442  0.49999783     1.35200
C367        C  0.19040573  0.69040866  0.50000023     0.79300
C368        C  0.30959587  0.80960558  0.49999681     0.79300
C369        C  0.25000043  0.75000705  0.40294505     0.79200
C370        C  0.24999912  0.75000824  0.09705148     0.79200
O371        O  0.26467869  0.73523960  0.17753679    -0.70000
O372        O  0.26476946  0.73532876  0.32245704    -0.70200
O373        O  0.22017462  0.69072262  0.25007571    -0.70000
O374        O  0.30928425  0.77983470  0.24991809    -0.70000
O375        O  0.27982156  0.80929485  0.25007511    -0.70000
O376        O  0.19071227  0.72018313  0.24992386    -0.70000
O377        O  0.23522831  0.76468637  0.32246058    -0.70000
O378        O  0.23531867  0.76477840  0.17753828    -0.70200
V379        V  0.26415301  0.73585511  0.24999692     1.35200
V380        V  0.23584382  0.76416210  0.24999937     1.35200
C381        C  0.24999907  0.75000851  0.15294491     0.79300
C382        C  0.24999910  0.75000754  0.34705120     0.79300
C383        C  0.19040216  0.69041135  0.25000044     0.79200
C384        C  0.30959399  0.80960633  0.24999618     0.79200
C385        C  0.15675500  0.65676378  0.25000258    -0.16700
C386        C  0.12848386  0.62849295  0.25000486     0.07400
C387        C  0.09538585  0.59539459  0.25000710     0.09200
C388        C  0.06711186  0.56711986  0.25000749    -0.17500
C389        C  0.34324109  0.84325436  0.24999566    -0.16700
C390        C  0.37151261  0.87152443  0.24999574     0.07400
C391        C  0.40461296  0.90462098  0.24999641     0.09200
C392        C  0.43288862  0.93289375  0.24999758    -0.17500
C393        C  0.15676098  0.50001469  0.25000332    -0.16700
C394        C  0.12848982  0.50001422  0.25000195     0.07400
C395        C  0.09538991  0.50001136  0.25000258     0.09200
C396        C  0.06711416  0.50000860  0.25000420    -0.17500
C397        C  0.43288734  0.50000439  0.24998971    -0.16700
C398        C  0.40461161  0.50000098  0.24998645     0.07400
C399        C  0.37151126  0.99999672  0.24998853     0.09200
C400        C  0.34323992  0.49999554  0.24999368    -0.17500
C401        C  0.15675899  0.65676036  0.50000162    -0.16700
C402        C  0.12848796  0.62849004  0.00000434     0.07400
C403        C  0.09538871  0.59539233  0.50000872     0.09200
C404        C  0.06711401  0.56711850  0.50001285    -0.17500
C405        C  0.43288776  0.93289576  0.50000999    -0.16700
C406        C  0.40461197  0.90462177  0.00000665     0.07400
C407        C  0.37151369  0.87152457  0.50000230     0.09200
C408        C  0.34324234  0.84325357  0.49999888    -0.17500
C409        C  0.06711296  0.50000571  0.50002065    -0.16700
C410        C  0.09538741  0.00000582  0.50002243     0.07400
C411        C  0.12848593  0.50000586  0.50002185     0.09200
C412        C  0.15675658  0.00000525  0.50001877    -0.17500
C413        C  0.34324531  0.00000657  0.49999990    -0.16700
C414        C  0.37151654  0.50000745  0.50000197     0.07400
C415        C  0.40461519  0.50000861  0.00000629     0.09200
C416        C  0.43288958  0.50000862  0.50001016    -0.17500
C417        C  0.99999847  0.56711785  0.24999998    -0.16700
C418        C  0.99999703  0.59539137  0.24999871     0.07400
C419        C  0.99999603  0.62848932  0.24999682     0.09200
C420        C  0.99999591  0.65676001  0.24999536    -0.17500
C421        C  0.00000159  0.93289481  0.25000326    -0.16700
C422        C  0.99999961  0.90461941  0.25000126     0.07400
C423        C  0.49999697  0.87151997  0.24999734     0.09200
C424        C  0.99999586  0.84324837  0.24999468    -0.17500
C425        C  0.50000902  0.65676656  0.49999855    -0.16700
C426        C  0.00000972  0.62849692  0.00000333     0.07400
C427        C  0.50000519  0.59539552  0.50000895     0.09200
C428        C  0.00000285  0.56712018  0.50001254    -0.17500
C429        C  0.99999894  0.93289355  0.50000854    -0.16700
C430        C  0.99999546  0.90461837  0.00000271     0.07400
C431        C  0.49999166  0.87151664  0.99999677     0.09200
C432        C  0.49999187  0.84324648  0.49999384    -0.17500
O433        O  0.47055082  0.73523438  0.57245530    -0.70000
O434        O  0.47054921  0.73532358  0.92753477    -0.70200
O435        O  0.47054330  0.69072047  0.49991855    -0.70000
O436        O  0.47053369  0.77982640  0.00007199    -0.70000
O437        O  0.02945700  0.80929213  0.49991366    -0.70000
O438        O  0.02946689  0.72018678  0.00006888    -0.70000
O439        O  0.02944820  0.76468739  0.92753006    -0.70000
O440        O  0.02944927  0.76477838  0.57245235    -0.70200
V441        V  0.47169176  0.73585012  0.49999508     1.35200
V442        V  0.02830801  0.76416261  0.99999117     1.35200
C443        C  0.00000027  0.75000638  0.59704617     0.79300
C444        C  0.99999757  0.75000493  0.90293978     0.79300
C445        C  0.50000716  0.69041365  0.99999480     0.79200
C446        C  0.49999349  0.80959934  0.99999286     0.79200
O447        O  0.47053492  0.77982904  0.75007096    -0.70000
O448        O  0.47053503  0.69071852  0.74991743    -0.70200
O449        O  0.47054733  0.73523491  0.82245534    -0.70000
O450        O  0.47054863  0.73532547  0.67753310    -0.70000
O451        O  0.02944753  0.76468453  0.67753178    -0.70000
O452        O  0.02944593  0.76477487  0.82245216    -0.70000
O453        O  0.02945781  0.72017967  0.75006979    -0.70000
O454        O  0.02945766  0.80929055  0.74991449    -0.70200
V455        V  0.47168870  0.73585062  0.74999408     1.35200
V456        V  0.02830480  0.76415867  0.74999207     1.35200
C457        C  0.99999617  0.80960106  0.74999295     0.79300
C458        C  0.99999618  0.69040772  0.74999398     0.79300
C459        C  0.99999753  0.75000516  0.84704630     0.79200
C460        C  0.99999815  0.75000513  0.65293998     0.79200
C461        C  0.03308318  0.53308858  0.00001601     0.04100
C462        C  0.03308235  0.50000570  0.00001728     0.04100
C463        C  0.00000006  0.96692539  0.00001414     0.04100
C464        C  0.46691852  0.96692526  0.00001302     0.04100
C465        C  0.46691973  0.50000835  0.00001364     0.04100
C466        C  0.00000186  0.53308866  0.00001482     0.04100
C467        C  0.03308206  0.53308888  0.75000540     0.04100
C468        C  0.03308279  0.50000742  0.75000504     0.04100
C469        C  0.00000141  0.96692519  0.75000333     0.04100
C470        C  0.46691925  0.96692443  0.74999947     0.04100
C471        C  0.46691855  0.50000576  0.74999695     0.04100
C472        C  0.99999966  0.53308786  0.75000125     0.04100
O473        O  0.23523061  0.97055751  0.92754521    -0.70000
O474        O  0.23532214  0.97055432  0.57246647    -0.70200
O475        O  0.19071504  0.97054400  0.00008793    -0.70000
O476        O  0.27982596  0.97054432  0.49992410    -0.70000
O477        O  0.30928690  0.52946736  0.00007932    -0.70000
O478        O  0.22017608  0.52946654  0.49993413    -0.70000
O479        O  0.26468080  0.52945304  0.57246677    -0.70000
O480        O  0.26477036  0.52945622  0.92754514    -0.70200
V481        V  0.23584714  0.97169751  0.00000579     1.35200
V482        V  0.26415486  0.52831336  0.50000632     1.35200
C483        C  0.25000077  0.50000751  0.90295267     0.79300
C484        C  0.25000158  0.50000360  0.59705930     0.79300
C485        C  0.19040374  0.00000537  0.00001341     0.79200
C486        C  0.30959768  0.00000605  0.00000058     0.79200
O487        O  0.26477293  0.52945300  0.67754352    -0.70000
O488        O  0.26468250  0.52945609  0.82246456    -0.70200
O489        O  0.30928636  0.52946151  0.75007866    -0.70000
O490        O  0.22018062  0.52947141  0.74992713    -0.70000
O491        O  0.19071469  0.97054855  0.75008526    -0.70000
O492        O  0.27982049  0.97053869  0.74992770    -0.70000
O493        O  0.23531923  0.97055734  0.82246782    -0.70000
O494        O  0.23522845  0.97055419  0.67754638    -0.70200
V495        V  0.26415683  0.52831309  0.75000371     1.35200
V496        V  0.23584437  0.97169691  0.75000698     1.35200
C497        C  0.25000079  0.50000300  0.65295228     0.79300
C498        C  0.25000058  0.50000671  0.84705872     0.79300
C499        C  0.30959395  0.49999840  0.75000072     0.79200
C500        C  0.19040703  0.50001143  0.75000539     0.79200
O501        O  0.19071461  0.72017994  0.49992279    -0.70000
O502        O  0.27982290  0.80929315  0.00007411    -0.70200
O503        O  0.23532032  0.76477594  0.92753838    -0.70000
O504        O  0.23522824  0.76468594  0.57245852    -0.70000
O505        O  0.26477069  0.73532961  0.57245889    -0.70000
O506        O  0.26468155  0.73523838  0.92753669    -0.70000
O507        O  0.30928655  0.77983421  0.49991910    -0.70000
O508        O  0.22017846  0.69072089  0.00007683    -0.70200
V509        V  0.23584540  0.76416014  0.99999851     1.35200
V510        V  0.26415574  0.73585431  0.99999789     1.35200
C511        C  0.19040581  0.69040883  0.00000030     0.79300
C512        C  0.30959612  0.80960568  0.99999696     0.79300
C513        C  0.25000005  0.75000759  0.90294494     0.79200
C514        C  0.24999949  0.75000790  0.59705137     0.79200
O515        O  0.26467872  0.73523959  0.67753681    -0.70000
O516        O  0.26476940  0.73532891  0.82245716    -0.70200
O517        O  0.22017460  0.69072262  0.75007555    -0.70000
O518        O  0.30928430  0.77983477  0.74991791    -0.70000
O519        O  0.27982155  0.80929487  0.75007530    -0.70000
O520        O  0.19071229  0.72018313  0.74992398    -0.70000
O521        O  0.23522816  0.76468645  0.82246051    -0.70000
O522        O  0.23531876  0.76477843  0.67753811    -0.70200
V523        V  0.26415305  0.73585515  0.74999683     1.35200
V524        V  0.23584384  0.76416211  0.74999944     1.35200
C525        C  0.24999860  0.75000909  0.65294477     0.79300
C526        C  0.24999968  0.75000692  0.84705143     0.79300
C527        C  0.19040227  0.69041143  0.75000045     0.79200
C528        C  0.30959417  0.80960643  0.74999635     0.79200
C529        C  0.15675491  0.65676380  0.75000238    -0.16700
C530        C  0.12848395  0.62849304  0.75000483     0.07400
C531        C  0.09538590  0.59539465  0.75000708     0.09200
C532        C  0.06711186  0.56711988  0.75000728    -0.17500
C533        C  0.34324101  0.84325427  0.74999576    -0.16700
C534        C  0.37151278  0.87152463  0.74999586     0.07400
C535        C  0.40461287  0.90462086  0.74999660     0.09200
C536        C  0.43288879  0.93289389  0.74999773    -0.17500
C537        C  0.15676087  0.50001453  0.75000323    -0.16700
C538        C  0.12848994  0.50001424  0.75000177     0.07400
C539        C  0.09538978  0.50001134  0.75000232     0.09200
C540        C  0.06711436  0.50000865  0.75000392    -0.17500
C541        C  0.43288738  0.50000432  0.74998996    -0.16700
C542        C  0.40461142  0.50000091  0.74998662     0.07400
C543        C  0.37151133  0.99999679  0.74998825     0.09200
C544        C  0.34323971  0.49999551  0.74999376    -0.17500
C545        C  0.15675890  0.65676040  0.00000180    -0.16700
C546        C  0.12848784  0.62848987  0.50000413     0.07400
C547        C  0.09538883  0.59539237  0.00000878     0.09200
C548        C  0.06711410  0.56711839  0.00001304    -0.17500
C549        C  0.43288794  0.93289624  0.00000997    -0.16700
C550        C  0.40461239  0.90462186  0.50000660     0.07400
C551        C  0.37151399  0.87152495  0.00000207     0.09200
C552        C  0.34324216  0.84325326  0.99999877    -0.17500
C553        C  0.06711247  0.50000543  0.00002067    -0.16700
C554        C  0.09538773  0.00000560  0.00002245     0.07400
C555        C  0.12848545  0.50000581  0.00002169     0.09200
C556        C  0.15675698  0.00000540  0.00001877    -0.17500
C557        C  0.34324566  0.00000662  0.99999999    -0.16700
C558        C  0.37151683  0.50000748  0.00000204     0.07400
C559        C  0.40461554  0.50000836  0.50000631     0.09200
C560        C  0.43288993  0.50000875  0.00001002    -0.17500
C561        C  0.99999846  0.56711793  0.75000032    -0.16700
C562        C  0.99999706  0.59539134  0.74999893     0.07400
C563        C  0.99999601  0.62848934  0.74999716     0.09200
C564        C  0.99999593  0.65675994  0.74999549    -0.17500
C565        C  0.00000158  0.93289480  0.75000298    -0.16700
C566        C  0.99999969  0.90461949  0.75000087     0.07400
C567        C  0.49999697  0.87151988  0.74999730     0.09200
C568        C  0.99999598  0.84324846  0.74999443    -0.17500
C569        C  0.50001045  0.65676696  0.99999840    -0.16700
C570        C  0.00000846  0.62849557  0.50000334     0.07400
C571        C  0.50000610  0.59539547  0.00000898     0.09200
C572        C  0.00000326  0.56712106  0.00001238    -0.17500
C573        C  0.99999852  0.93289270  0.00000864    -0.16700
C574        C  0.99999608  0.90461795  0.50000267     0.07400
C575        C  0.49999263  0.87151775  0.49999663     0.09200
C576        C  0.49999080  0.84324654  0.99999369    -0.17500
O577        O  0.97055059  0.23523403  0.07245510    -0.70000
O578        O  0.97054943  0.23532386  0.42753483    -0.70200
O579        O  0.97054399  0.19072044  0.99991852    -0.70000
O580        O  0.97053431  0.27982678  0.50007207    -0.70000
O581        O  0.52945646  0.30929223  0.99991368    -0.70000
O582        O  0.52946611  0.22018612  0.50006878    -0.70000
O583        O  0.52944780  0.26468693  0.42753006    -0.70000
O584        O  0.52944950  0.26477880  0.07245232    -0.70200
V585        V  0.97169185  0.23584994  0.99999496     1.35200
V586        V  0.52830787  0.26416223  0.49999118     1.35200
C587        C  0.49999961  0.25000608  0.09704639     0.79300
C588        C  0.49999831  0.25000537  0.40293984     0.79300
C589        C  0.00000639  0.19041264  0.49999470     0.79200
C590        C  0.99999421  0.30960011  0.49999287     0.79200
O591        O  0.97053483  0.27982900  0.25007070    -0.70000
O592        O  0.97053506  0.19071857  0.24991737    -0.70200
O593        O  0.97054694  0.23523470  0.32245519    -0.70000
O594        O  0.97054880  0.23532551  0.17753300    -0.70000
O595        O  0.52944735  0.26468454  0.17753179    -0.70000
O596        O  0.52944598  0.26477492  0.32245206    -0.70000
O597        O  0.52945773  0.22017971  0.25006978    -0.70000
O598        O  0.52945760  0.30929058  0.24991458    -0.70200
V599        V  0.97168867  0.23585062  0.24999402     1.35200
V600        V  0.52830474  0.26415873  0.24999206     1.35200
C601        C  0.49999614  0.30960122  0.24999300     0.79300
C602        C  0.49999636  0.19040787  0.24999404     0.79300
C603        C  0.49999643  0.25000473  0.34704639     0.79200
C604        C  0.49999883  0.25000549  0.15293979     0.79200
C605        C  0.53308322  0.03308840  0.50001610     0.04100
C606        C  0.53308232  0.00000613  0.50001737     0.04100
C607        C  0.50000026  0.46692476  0.50001387     0.04100
C608        C  0.96691886  0.46692568  0.50001304     0.04100
C609        C  0.96691982  0.00000785  0.50001363     0.04100
C610        C  0.50000177  0.03308903  0.50001472     0.04100
C611        C  0.53308193  0.03308878  0.25000536     0.04100
C612        C  0.53308282  0.00000744  0.25000518     0.04100
C613        C  0.50000138  0.46692509  0.25000339     0.04100
C614        C  0.96691940  0.46692452  0.24999944     0.04100
C615        C  0.96691860  0.00000572  0.24999693     0.04100
C616        C  0.49999970  0.03308786  0.25000119     0.04100
O617        O  0.73523044  0.47055723  0.42754532    -0.70000
O618        O  0.73532223  0.47055454  0.07246628    -0.70200
O619        O  0.69071480  0.47054372  0.50008799    -0.70000
O620        O  0.77982601  0.47054454  0.99992421    -0.70000
O621        O  0.80928698  0.02946715  0.50007923    -0.70000
O622        O  0.72017608  0.02946685  0.99993396    -0.70000
O623        O  0.76468075  0.02945330  0.07246663    -0.70000
O624        O  0.76477033  0.02945604  0.42754532    -0.70200
V625        V  0.73584699  0.47169720  0.50000590     1.35200
V626        V  0.76415483  0.02831366  0.00000619     1.35200
C627        C  0.75000061  0.00000704  0.40295269     0.79300
C628        C  0.75000171  0.00000414  0.09705905     0.79300
C629        C  0.69040386  0.50000500  0.50001346     0.79200
C630        C  0.80959784  0.50000594  0.50000076     0.79200
O631        O  0.76477306  0.02945326  0.17754361    -0.70000
O632        O  0.76468244  0.02945589  0.32246470    -0.70200
O633        O  0.80928638  0.02946152  0.25007882    -0.70000
O634        O  0.72018058  0.02947135  0.24992740    -0.70000
O635        O  0.69071474  0.47054854  0.25008520    -0.70000
O636        O  0.77982049  0.47053860  0.24992763    -0.70000
O637        O  0.73531915  0.47055706  0.32246768    -0.70000
O638        O  0.73522849  0.47055442  0.17754619    -0.70200
V639        V  0.76415684  0.02831311  0.25000386     1.35200
V640        V  0.73584440  0.47169692  0.25000689     1.35200
C641        C  0.75000072  0.00000308  0.15295232     0.79300
C642        C  0.75000071  0.00000675  0.34705880     0.79300
C643        C  0.80959387  0.99999858  0.25000069     0.79200
C644        C  0.69040716  0.00001165  0.25000557     0.79200
O645        O  0.69071470  0.22017996  0.99992297    -0.70000
O646        O  0.77982284  0.30929334  0.50007407    -0.70200
O647        O  0.73532006  0.26477599  0.42753829    -0.70000
O648        O  0.73522845  0.26468602  0.07245866    -0.70000
O649        O  0.76477070  0.23532947  0.07245901    -0.70000
O650        O  0.76468134  0.23523849  0.42753663    -0.70000
O651        O  0.80928652  0.27983392  0.99991932    -0.70000
O652        O  0.72017850  0.19072102  0.50007668    -0.70200
V653        V  0.73584520  0.26416013  0.49999838     1.35200
V654        V  0.76415564  0.23585439  0.49999784     1.35200
C655        C  0.69040582  0.19040883  0.50000023     0.79300
C656        C  0.80959553  0.30960541  0.49999681     0.79300
C657        C  0.75000014  0.25000743  0.40294505     0.79200
C658        C  0.74999954  0.25000783  0.09705149     0.79200
O659        O  0.76467879  0.23523956  0.17753690    -0.70000
O660        O  0.76476926  0.23532874  0.32245711    -0.70200
O661        O  0.72017460  0.19072257  0.25007559    -0.70000
O662        O  0.80928426  0.27983472  0.24991815    -0.70000
O663        O  0.77982152  0.30929483  0.25007506    -0.70000
O664        O  0.69071227  0.22018308  0.24992394    -0.70000
O665        O  0.73522820  0.26468645  0.32246054    -0.70000
O666        O  0.73531869  0.26477826  0.17753820    -0.70200
V667        V  0.76415300  0.23585510  0.24999686     1.35200
V668        V  0.73584378  0.26416207  0.24999942     1.35200
C669        C  0.74999860  0.25000895  0.15294492     0.79300
C670        C  0.74999944  0.25000721  0.34705123     0.79300
C671        C  0.69040225  0.19041138  0.25000042     0.79200
C672        C  0.80959397  0.30960634  0.24999626     0.79200
C673        C  0.65675489  0.15676371  0.25000257    -0.16700
C674        C  0.62848394  0.12849298  0.25000486     0.07400
C675        C  0.59538581  0.09539455  0.25000710     0.09200
C676        C  0.56711186  0.06711991  0.25000748    -0.17500
C677        C  0.84324106  0.34325436  0.24999573    -0.16700
C678        C  0.87151258  0.37152443  0.24999573     0.07400
C679        C  0.90461296  0.40462101  0.24999640     0.09200
C680        C  0.93288859  0.43289376  0.24999758    -0.17500
C681        C  0.65676089  0.00001457  0.25000332    -0.16700
C682        C  0.62848988  0.00001417  0.25000195     0.07400
C683        C  0.59538976  0.00001124  0.25000258     0.09200
C684        C  0.56711423  0.00000858  0.25000420    -0.17500
C685        C  0.93288726  0.00000429  0.24998977    -0.16700
C686        C  0.90461163  0.00000095  0.24998680     0.07400
C687        C  0.87151138  0.49999682  0.24998847     0.09200
C688        C  0.84324001  0.99999566  0.24999383    -0.17500
C689        C  0.65675896  0.15676035  0.50000162    -0.16700
C690        C  0.62848794  0.12849005  0.00000434     0.07400
C691        C  0.59538877  0.09539235  0.50000872     0.09200
C692        C  0.56711396  0.06711847  0.50001285    -0.17500
C693        C  0.93288763  0.43289554  0.50000999    -0.16700
C694        C  0.90461193  0.40462176  0.00000665     0.07400
C695        C  0.87151340  0.37152434  0.50000230     0.09200
C696        C  0.84324249  0.34325370  0.49999888    -0.17500
C697        C  0.56711303  0.00000569  0.50002065    -0.16700
C698        C  0.59538742  0.50000581  0.50002243     0.07400
C699        C  0.62848596  0.00000582  0.50002185     0.09200
C700        C  0.65675655  0.50000523  0.50001877    -0.17500
C701        C  0.84324541  0.50000656  0.49999990    -0.16700
C702        C  0.87151652  0.00000743  0.50000197     0.07400
C703        C  0.90461554  0.00000857  0.00000626     0.09200
C704        C  0.93288958  0.00000868  0.50001016    -0.17500
C705        C  0.49999844  0.06711782  0.24999999    -0.16700
C706        C  0.49999699  0.09539136  0.24999871     0.07400
C707        C  0.49999599  0.12848930  0.24999682     0.09200
C708        C  0.49999588  0.15675998  0.24999536    -0.17500
C709        C  0.50000159  0.43289486  0.25000327    -0.16700
C710        C  0.49999967  0.40461935  0.25000126     0.07400
C711        C  0.99999702  0.37151992  0.24999734     0.09200
C712        C  0.49999589  0.34324831  0.24999468    -0.17500
C713        C  0.00000913  0.15676687  0.49999855    -0.16700
C714        C  0.50000967  0.12849686  0.00000315     0.07400
C715        C  0.00000525  0.09539575  0.50000895     0.09200
C716        C  0.50000288  0.06712025  0.50001254    -0.17500
C717        C  0.49999905  0.43289372  0.50000854    -0.16700
C718        C  0.49999542  0.40461830  0.00000271     0.07400
C719        C  0.99999169  0.37151659  0.99999677     0.09200
C720        C  0.99999189  0.34324639  0.49999385    -0.17500
O721        O  0.97055064  0.23523420  0.57245517    -0.70000
O722        O  0.97054907  0.23532352  0.92753482    -0.70200
O723        O  0.97054336  0.19072051  0.49991856    -0.70000
O724        O  0.97053370  0.27982642  0.00007197    -0.70000
O725        O  0.52945698  0.30929212  0.49991368    -0.70000
O726        O  0.52946685  0.22018674  0.00006885    -0.70000
O727        O  0.52944813  0.26468734  0.92753004    -0.70000
O728        O  0.52944937  0.26477842  0.57245228    -0.70200
V729        V  0.97169183  0.23585007  0.49999509     1.35200
V730        V  0.52830797  0.26416259  0.99999118     1.35200
C731        C  0.49999952  0.25000603  0.59704617     0.79300
C732        C  0.49999781  0.25000513  0.90293977     0.79300
C733        C  0.00000703  0.19041364  0.99999481     0.79200
C734        C  0.99999353  0.30959929  0.99999285     0.79200
O735        O  0.97053488  0.27982902  0.75007093    -0.70000
O736        O  0.97053499  0.19071849  0.74991743    -0.70200
O737        O  0.97054739  0.23523492  0.82245537    -0.70000
O738        O  0.97054885  0.23532558  0.67753297    -0.70000
O739        O  0.52944733  0.26468443  0.67753169    -0.70000
O740        O  0.52944594  0.26477483  0.82245212    -0.70000
O741        O  0.52945777  0.22017965  0.75006978    -0.70000
O742        O  0.52945763  0.30929053  0.74991452    -0.70200
V743        V  0.97168865  0.23585057  0.74999408     1.35200
V744        V  0.52830477  0.26415864  0.74999207     1.35200
C745        C  0.49999613  0.30960105  0.74999292     0.79300
C746        C  0.49999613  0.19040770  0.74999403     0.79300
C747        C  0.49999723  0.25000504  0.84704632     0.79200
C748        C  0.49999880  0.25000544  0.65293998     0.79200
C749        C  0.53308318  0.03308860  0.00001601     0.04100
C750        C  0.53308236  0.00000572  0.00001728     0.04100
C751        C  0.49999996  0.46692534  0.00001414     0.04100
C752        C  0.96691853  0.46692526  0.00001302     0.04100
C753        C  0.96691992  0.00000836  0.00001364     0.04100
C754        C  0.50000184  0.03308868  0.00001482     0.04100
C755        C  0.53308199  0.03308882  0.75000539     0.04100
C756        C  0.53308278  0.00000742  0.75000504     0.04100
C757        C  0.50000141  0.46692521  0.75000332     0.04100
C758        C  0.96691931  0.46692448  0.74999945     0.04100
C759        C  0.96691858  0.00000575  0.74999692     0.04100
C760        C  0.49999967  0.03308785  0.75000122     0.04100
O761        O  0.73523062  0.47055752  0.92754521    -0.70000
O762        O  0.73532204  0.47055424  0.57246648    -0.70200
O763        O  0.69071499  0.47054402  0.00008792    -0.70000
O764        O  0.77982592  0.47054427  0.49992424    -0.70000
O765        O  0.80928695  0.02946734  0.00007925    -0.70000
O766        O  0.72017608  0.02946659  0.49993413    -0.70000
O767        O  0.76468080  0.02945311  0.57246677    -0.70000
O768        O  0.76477033  0.02945622  0.92754514    -0.70200
V769        V  0.73584711  0.47169752  0.00000578     1.35200
V770        V  0.76415487  0.02831341  0.50000632     1.35200
C771        C  0.75000077  0.00000751  0.90295266     0.79300
C772        C  0.75000160  0.00000363  0.59705930     0.79300
C773        C  0.69040375  0.50000534  0.00001341     0.79200
C774        C  0.80959768  0.50000606  0.00000067     0.79200
O775        O  0.76477305  0.02945300  0.67754354    -0.70000
O776        O  0.76468262  0.02945610  0.82246456    -0.70200
O777        O  0.80928644  0.02946150  0.75007866    -0.70000
O778        O  0.72018067  0.02947140  0.74992713    -0.70000
O779        O  0.69071473  0.47054858  0.75008518    -0.70000
O780        O  0.77982055  0.47053871  0.74992779    -0.70000
O781        O  0.73531919  0.47055734  0.82246782    -0.70000
O782        O  0.73522841  0.47055419  0.67754640    -0.70200
V783        V  0.76415694  0.02831310  0.75000371     1.35200
V784        V  0.73584436  0.47169692  0.75000699     1.35200
C785        C  0.75000087  0.00000305  0.65295228     0.79300
C786        C  0.75000064  0.00000671  0.84705873     0.79300
C787        C  0.80959396  0.99999838  0.75000074     0.79200
C788        C  0.69040724  0.00001145  0.75000539     0.79200
O789        O  0.69071459  0.22017996  0.49992288    -0.70000
O790        O  0.77982285  0.30929312  0.00007409    -0.70200
O791        O  0.73532024  0.26477596  0.92753838    -0.70000
O792        O  0.73522826  0.26468595  0.57245851    -0.70000
O793        O  0.76477066  0.23532955  0.57245890    -0.70000
O794        O  0.76468148  0.23523840  0.92753668    -0.70000
O795        O  0.80928648  0.27983415  0.49991922    -0.70000
O796        O  0.72017843  0.19072087  0.00007679    -0.70200
V797        V  0.73584536  0.26416012  0.99999849     1.35200
V798        V  0.76415569  0.23585428  0.99999792     1.35200
C799        C  0.69040579  0.19040882  0.00000028     0.79300
C800        C  0.80959605  0.30960574  0.99999698     0.79300
C801        C  0.75000017  0.25000745  0.90294496     0.79200
C802        C  0.74999940  0.25000801  0.59705135     0.79200
O803        O  0.76467866  0.23523961  0.67753678    -0.70000
O804        O  0.76476943  0.23532886  0.82245711    -0.70200
O805        O  0.72017458  0.19072260  0.75007553    -0.70000
O806        O  0.80928424  0.27983476  0.74991789    -0.70000
O807        O  0.77982151  0.30929486  0.75007531    -0.70000
O808        O  0.69071227  0.22018313  0.74992399    -0.70000
O809        O  0.73522817  0.26468639  0.82246055    -0.70000
O810        O  0.73531870  0.26477846  0.67753814    -0.70200
V811        V  0.76415301  0.23585514  0.74999681     1.35200
V812        V  0.73584380  0.26416211  0.74999945     1.35200
C813        C  0.74999866  0.25000904  0.65294478     0.79300
C814        C  0.74999954  0.25000705  0.84705141     0.79300
C815        C  0.69040225  0.19041144  0.75000050     0.79200
C816        C  0.80959397  0.30960639  0.74999635     0.79200
C817        C  0.65675486  0.15676377  0.75000256    -0.16700
C818        C  0.62848396  0.12849308  0.75000486     0.07400
C819        C  0.59538585  0.09539460  0.75000724     0.09200
C820        C  0.56711189  0.06711993  0.75000731    -0.17500
C821        C  0.84324103  0.34325440  0.74999576    -0.16700
C822        C  0.87151263  0.37152455  0.74999586     0.07400
C823        C  0.90461292  0.40462099  0.74999661     0.09200
C824        C  0.93288875  0.43289385  0.74999773    -0.17500
C825        C  0.65676080  0.00001457  0.75000323    -0.16700
C826        C  0.62849011  0.00001422  0.75000177     0.07400
C827        C  0.59538971  0.00001132  0.75000232     0.09200
C828        C  0.56711442  0.00000864  0.75000392    -0.17500
C829        C  0.93288736  0.00000430  0.74998976    -0.16700
C830        C  0.90461146  0.00000091  0.74998658     0.07400
C831        C  0.87151121  0.49999678  0.74998840     0.09200
C832        C  0.84323976  0.99999547  0.74999373    -0.17500
C833        C  0.65675890  0.15676041  0.00000180    -0.16700
C834        C  0.62848789  0.12848996  0.50000413     0.07400
C835        C  0.59538882  0.09539236  0.00000878     0.09200
C836        C  0.56711409  0.06711838  0.00001304    -0.17500
C837        C  0.93288797  0.43289629  0.00000996    -0.16700
C838        C  0.90461265  0.40462201  0.50000660     0.07400
C839        C  0.87151400  0.37152502  0.00000207     0.09200
C840        C  0.84324207  0.34325324  0.99999877    -0.17500
C841        C  0.56711250  0.00000545  0.00002067    -0.16700
C842        C  0.59538772  0.50000561  0.00002245     0.07400
C843        C  0.62848547  0.00000577  0.00002169     0.09200
C844        C  0.65675696  0.50000543  0.00001877    -0.17500
C845        C  0.84324564  0.50000661  0.00000001    -0.16700
C846        C  0.87151640  0.00000748  0.00000186     0.07400
C847        C  0.90461554  0.00000839  0.50000631     0.09200
C848        C  0.93288961  0.00000871  0.00001005    -0.17500
C849        C  0.49999845  0.06711794  0.75000013    -0.16700
C850        C  0.49999704  0.09539132  0.74999889     0.07400
C851        C  0.49999596  0.12848934  0.74999701     0.09200
C852        C  0.49999588  0.15675991  0.74999546    -0.17500
C853        C  0.50000161  0.43289482  0.75000298    -0.16700
C854        C  0.49999966  0.40461947  0.75000087     0.07400
C855        C  0.99999702  0.37151985  0.74999730     0.09200
C856        C  0.49999595  0.34324845  0.74999443    -0.17500
C857        C  0.00001043  0.15676685  0.99999841    -0.16700
C858        C  0.50000844  0.12849558  0.50000334     0.07400
C859        C  0.00000604  0.09539539  0.00000898     0.09200
C860        C  0.50000324  0.06712103  0.00001242    -0.17500
C861        C  0.49999848  0.43289272  0.00000864    -0.16700
C862        C  0.49999606  0.40461772  0.50000267     0.07400
C863        C  0.99999280  0.37151787  0.49999663     0.09200
C864        C  0.99999074  0.34324661  0.99999369    -0.17500
O865        O  0.97055082  0.73523410  0.07245516    -0.70000
O866        O  0.97054916  0.73532376  0.42753492    -0.70200
O867        O  0.97054416  0.69072048  0.99991853    -0.70000
O868        O  0.97053424  0.77982681  0.50007207    -0.70000
O869        O  0.52945640  0.80929224  0.99991367    -0.70000
O870        O  0.52946608  0.72018605  0.50006878    -0.70000
O871        O  0.52944783  0.76468691  0.42753005    -0.70000
O872        O  0.52944935  0.76477877  0.07245235    -0.70200
V873        V  0.97169190  0.73584989  0.99999495     1.35200
V874        V  0.52830789  0.76416224  0.49999116     1.35200
C875        C  0.50000041  0.75000646  0.09704639     0.79300
C876        C  0.49999818  0.75000529  0.40293982     0.79300
C877        C  0.00000611  0.69041270  0.49999472     0.79200
C878        C  0.99999436  0.80960013  0.49999285     0.79200
O879        O  0.97053484  0.77982900  0.25007072    -0.70000
O880        O  0.97053501  0.69071858  0.24991737    -0.70200
O881        O  0.97054722  0.73523488  0.32245530    -0.70000
O882        O  0.97054867  0.73532548  0.17753310    -0.70000
O883        O  0.52944763  0.76468472  0.17753190    -0.70000
O884        O  0.52944598  0.76477497  0.32245211    -0.70000
O885        O  0.52945786  0.72017975  0.25006979    -0.70000
O886        O  0.52945767  0.80929063  0.24991463    -0.70200
V887        V  0.97168869  0.73585065  0.24999400     1.35200
V888        V  0.52830482  0.76415880  0.24999210     1.35200
C889        C  0.49999606  0.80960116  0.24999301     0.79300
C890        C  0.49999639  0.69040793  0.24999403     0.79300
C891        C  0.49999653  0.75000476  0.34704641     0.79200
C892        C  0.49999816  0.75000513  0.15293980     0.79200
C893        C  0.53308307  0.53308827  0.50001610     0.04100
C894        C  0.53308253  0.50000624  0.50001737     0.04100
C895        C  0.50000031  0.96692491  0.50001387     0.04100
C896        C  0.96691881  0.96692564  0.50001304     0.04100
C897        C  0.96691972  0.50000783  0.50001363     0.04100
C898        C  0.50000183  0.53308909  0.50001472     0.04100
C899        C  0.53308186  0.53308870  0.25000537     0.04100
C900        C  0.53308286  0.50000742  0.25000519     0.04100
C901        C  0.50000142  0.96692510  0.25000338     0.04100
C902        C  0.96691930  0.96692449  0.24999948     0.04100
C903        C  0.96691849  0.50000573  0.24999683     0.04100
C904        C  0.49999969  0.53308783  0.25000115     0.04100
O905        O  0.73523061  0.97055731  0.42754530    -0.70000
O906        O  0.73532222  0.97055453  0.07246630    -0.70200
O907        O  0.69071490  0.97054380  0.50008799    -0.70000
O908        O  0.77982598  0.97054454  0.99992412    -0.70000
O909        O  0.80928682  0.52946710  0.50007923    -0.70000
O910        O  0.72017625  0.52946687  0.99993405    -0.70000
O911        O  0.76468084  0.52945330  0.07246665    -0.70000
O912        O  0.76477023  0.52945597  0.42754531    -0.70200
V913        V  0.73584712  0.97169726  0.50000589     1.35200
V914        V  0.76415493  0.52831365  0.00000620     1.35200
C915        C  0.75000050  0.50000696  0.40295269     0.79300
C916        C  0.75000176  0.50000410  0.09705905     0.79300
C917        C  0.69040413  0.00000510  0.50001346     0.79200
C918        C  0.80959775  0.00000602  0.50000076     0.79200
O919        O  0.76477315  0.52945318  0.17754362    -0.70000
O920        O  0.76468245  0.52945581  0.32246471    -0.70200
O921        O  0.80928643  0.52946145  0.25007893    -0.70000
O922        O  0.72018072  0.52947134  0.24992730    -0.70000
O923        O  0.69071474  0.97054857  0.25008517    -0.70000
O924        O  0.77982055  0.97053871  0.24992765    -0.70000
O925        O  0.73531913  0.97055715  0.32246768    -0.70000
O926        O  0.73522846  0.97055452  0.17754620    -0.70200
V927        V  0.76415695  0.52831306  0.25000387     1.35200
V928        V  0.73584438  0.97169699  0.25000689     1.35200
C929        C  0.75000083  0.50000303  0.15295233     0.79300
C930        C  0.75000068  0.50000666  0.34705880     0.79300
C931        C  0.80959403  0.49999840  0.25000067     0.79200
C932        C  0.69040715  0.50001167  0.25000554     0.79200
O933        O  0.69071468  0.72017994  0.99992304    -0.70000
O934        O  0.77982281  0.80929335  0.50007421    -0.70200
O935        O  0.73531994  0.76477604  0.42753832    -0.70000
O936        O  0.73522847  0.76468596  0.07245876    -0.70000
O937        O  0.76477073  0.73532942  0.07245891    -0.70000
O938        O  0.76468120  0.73523849  0.42753660    -0.70000
O939        O  0.80928656  0.77983399  0.99991926    -0.70000
O940        O  0.72017850  0.69072103  0.50007680    -0.70200
V941        V  0.73584513  0.76416011  0.49999837     1.35200
V942        V  0.76415561  0.73585438  0.49999786     1.35200
C943        C  0.69040557  0.69040863  0.50000022     0.79300
C944        C  0.80959544  0.80960539  0.49999682     0.79300
C945        C  0.75000030  0.75000718  0.40294504     0.79200
C946        C  0.74999954  0.75000788  0.09705148     0.79200
O947        O  0.76467888  0.73523956  0.17753691    -0.70000
O948        O  0.76476940  0.73532872  0.32245710    -0.70200
O949        O  0.72017465  0.69072257  0.25007565    -0.70000
O950        O  0.80928435  0.77983471  0.24991811    -0.70000
O951        O  0.77982165  0.80929484  0.25007510    -0.70000
O952        O  0.69071237  0.72018313  0.24992386    -0.70000
O953        O  0.73522831  0.76468640  0.32246055    -0.70000
O954        O  0.73531879  0.76477828  0.17753819    -0.70200
V955        V  0.76415307  0.73585513  0.24999691     1.35200
V956        V  0.73584385  0.76416209  0.24999937     1.35200
C957        C  0.74999878  0.75000892  0.15294493     0.79300
C958        C  0.74999924  0.75000744  0.34705124     0.79300
C959        C  0.69040236  0.69041150  0.25000041     0.79200
C960        C  0.80959387  0.80960640  0.24999626     0.79200
C961        C  0.65675484  0.65676372  0.25000257    -0.16700
C962        C  0.62848406  0.62849313  0.25000486     0.07400
C963        C  0.59538570  0.59539447  0.25000710     0.09200
C964        C  0.56711200  0.56711993  0.25000749    -0.17500
C965        C  0.84324115  0.84325447  0.24999573    -0.16700
C966        C  0.87151254  0.87152448  0.24999573     0.07400
C967        C  0.90461298  0.90462105  0.24999640     0.09200
C968        C  0.93288867  0.93289376  0.24999758    -0.17500
C969        C  0.65676109  0.50001469  0.25000332    -0.16700
C970        C  0.62848980  0.50001422  0.25000195     0.07400
C971        C  0.59538998  0.50001137  0.25000258     0.09200
C972        C  0.56711412  0.50000857  0.25000420    -0.17500
C973        C  0.93288753  0.50000439  0.24998971    -0.16700
C974        C  0.90461134  0.50000096  0.24998645     0.07400
C975        C  0.87151105  0.99999670  0.24998853     0.09200
C976        C  0.84323972  0.49999553  0.24999369    -0.17500
C977        C  0.65675902  0.65676039  0.50000161    -0.16700
C978        C  0.62848779  0.62848987  0.00000434     0.07400
C979        C  0.59538870  0.59539233  0.50000872     0.09200
C980        C  0.56711397  0.56711847  0.50001285    -0.17500
C981        C  0.93288757  0.93289554  0.50000999    -0.16700
C982        C  0.90461209  0.90462182  0.00000665     0.07400
C983        C  0.87151334  0.87152428  0.50000230     0.09200
C984        C  0.84324255  0.84325383  0.49999888    -0.17500
C985        C  0.56711274  0.50000569  0.50002065    -0.16700
C986        C  0.59538718  0.00000582  0.50002243     0.07400
C987        C  0.62848563  0.50000582  0.50002185     0.09200
C988        C  0.65675638  0.00000524  0.50001877    -0.17500
C989        C  0.84324568  0.00000657  0.49999990    -0.16700
C990        C  0.87151679  0.50000746  0.50000197     0.07400
C991        C  0.90461560  0.50000862  0.00000629     0.09200
C992        C  0.93288976  0.50000861  0.50001016    -0.17500
C993        C  0.49999842  0.56711786  0.24999998    -0.16700
C994        C  0.49999713  0.59539135  0.24999871     0.07400
C995        C  0.49999608  0.62848940  0.24999682     0.09200
C996        C  0.49999598  0.65675995  0.24999536    -0.17500
C997        C  0.50000161  0.93289485  0.25000326    -0.16700
C998        C  0.49999964  0.90461933  0.25000126     0.07400
C999        C  0.99999700  0.87151992  0.24999734     0.09200
C1000       C  0.49999585  0.84324831  0.24999468    -0.17500
C1001       C  0.00000903  0.65676665  0.49999855    -0.16700
C1002       C  0.50000967  0.62849680  0.00000334     0.07400
C1003       C  0.00000509  0.59539555  0.50000895     0.09200
C1004       C  0.50000283  0.56712025  0.50001254    -0.17500
C1005       C  0.49999898  0.93289360  0.50000854    -0.16700
C1006       C  0.49999545  0.90461824  0.00000271     0.07400
C1007       C  0.99999171  0.87151653  0.99999677     0.09200
C1008       C  0.99999192  0.84324658  0.49999384    -0.17500
O1009       O  0.97055057  0.73523420  0.57245516    -0.70000
O1010       O  0.97054946  0.73532367  0.92753468    -0.70200
O1011       O  0.97054332  0.69072048  0.49991854    -0.70000
O1012       O  0.97053375  0.77982633  0.00007193    -0.70000
O1013       O  0.52945704  0.80929211  0.49991365    -0.70000
O1014       O  0.52946682  0.72018675  0.00006889    -0.70000
O1015       O  0.52944796  0.76468730  0.92752996    -0.70000
O1016       O  0.52944952  0.76477846  0.57245222    -0.70200
V1017       V  0.97169181  0.73585012  0.49999507     1.35200
V1018       V  0.52830799  0.76416264  0.99999114     1.35200
C1019       C  0.49999933  0.75000590  0.59704618     0.79300
C1020       C  0.49999826  0.75000530  0.90293981     0.79300
C1021       C  0.00000721  0.69041373  0.99999482     0.79200
C1022       C  0.99999352  0.80959921  0.99999285     0.79200
O1023       O  0.97053486  0.77982899  0.75007100    -0.70000
O1024       O  0.97053502  0.69071845  0.74991740    -0.70200
O1025       O  0.97054720  0.73523481  0.82245527    -0.70000
O1026       O  0.97054883  0.73532556  0.67753300    -0.70000
O1027       O  0.52944733  0.76468441  0.67753168    -0.70000
O1028       O  0.52944608  0.76477490  0.82245210    -0.70000
O1029       O  0.52945781  0.72017963  0.75006977    -0.70000
O1030       O  0.52945770  0.80929054  0.74991451    -0.70200
V1031       V  0.97168868  0.73585059  0.74999413     1.35200
V1032       V  0.52830483  0.76415866  0.74999211     1.35200
C1033       C  0.49999610  0.80960103  0.74999294     0.79300
C1034       C  0.49999632  0.69040776  0.74999399     0.79300
C1035       C  0.49999675  0.75000479  0.84704626     0.79200
C1036       C  0.49999913  0.75000558  0.65293997     0.79200
C1037       C  0.53308309  0.53308866  0.00001601     0.04100
C1038       C  0.53308258  0.50000573  0.00001728     0.04100
C1039       C  0.50000010  0.96692529  0.00001414     0.04100
C1040       C  0.96691865  0.96692527  0.00001302     0.04100
C1041       C  0.96692001  0.50000840  0.00001364     0.04100
C1042       C  0.50000197  0.53308870  0.00001482     0.04100
C1043       C  0.53308188  0.53308879  0.75000540     0.04100
C1044       C  0.53308288  0.50000742  0.75000504     0.04100
C1045       C  0.50000151  0.96692519  0.75000333     0.04100
C1046       C  0.96691925  0.96692442  0.74999947     0.04100
C1047       C  0.96691868  0.50000576  0.74999695     0.04100
C1048       C  0.49999971  0.53308786  0.75000125     0.04100
O1049       O  0.73523058  0.97055751  0.92754521    -0.70000
O1050       O  0.73532219  0.97055431  0.57246647    -0.70200
O1051       O  0.69071487  0.97054401  0.00008796    -0.70000
O1052       O  0.77982607  0.97054435  0.49992424    -0.70000
O1053       O  0.80928700  0.52946735  0.00007922    -0.70000
O1054       O  0.72017604  0.52946653  0.49993413    -0.70000
O1055       O  0.76468072  0.52945304  0.57246677    -0.70000
O1056       O  0.76477039  0.52945622  0.92754513    -0.70200
V1057       V  0.73584704  0.97169752  0.00000579     1.35200
V1058       V  0.76415477  0.52831335  0.50000632     1.35200
C1059       C  0.75000074  0.50000751  0.90295267     0.79300
C1060       C  0.75000155  0.50000360  0.59705930     0.79300
C1061       C  0.69040386  0.00000538  0.00001338     0.79200
C1062       C  0.80959758  0.00000609  0.00000061     0.79200
O1063       O  0.76477299  0.52945299  0.67754352    -0.70000
O1064       O  0.76468260  0.52945609  0.82246456    -0.70200
O1065       O  0.80928646  0.52946154  0.75007863    -0.70000
O1066       O  0.72018067  0.52947139  0.74992716    -0.70000
O1067       O  0.69071474  0.97054862  0.75008526    -0.70000
O1068       O  0.77982049  0.97053864  0.74992770    -0.70000
O1069       O  0.73531914  0.97055733  0.82246782    -0.70000
O1070       O  0.73522836  0.97055419  0.67754638    -0.70200
V1071       V  0.76415689  0.52831309  0.75000371     1.35200
V1072       V  0.73584438  0.97169692  0.75000698     1.35200
C1073       C  0.75000088  0.50000300  0.65295229     0.79300
C1074       C  0.75000062  0.50000671  0.84705872     0.79300
C1075       C  0.80959392  0.49999849  0.75000075     0.79200
C1076       C  0.69040702  0.50001138  0.75000536     0.79200
O1077       O  0.69071455  0.72017997  0.49992275    -0.70000
O1078       O  0.77982288  0.80929318  0.00007408    -0.70200
O1079       O  0.73532009  0.76477599  0.92753846    -0.70000
O1080       O  0.73522825  0.76468580  0.57245863    -0.70000
O1081       O  0.76477073  0.73532947  0.57245877    -0.70000
O1082       O  0.76468134  0.73523844  0.92753660    -0.70000
O1083       O  0.80928650  0.77983420  0.49991908    -0.70000
O1084       O  0.72017849  0.69072092  0.00007680    -0.70200
V1085       V  0.73584532  0.76416010  0.99999855     1.35200
V1086       V  0.76415568  0.73585429  0.99999786     1.35200
C1087       C  0.69040559  0.69040881  0.00000031     0.79300
C1088       C  0.80959593  0.80960565  0.99999695     0.79300
C1089       C  0.75000033  0.75000722  0.90294496     0.79200
C1090       C  0.74999893  0.75000834  0.59705138     0.79200
O1091       O  0.76467866  0.73523971  0.67753668    -0.70000
O1092       O  0.76476951  0.73532881  0.82245710    -0.70200
O1093       O  0.72017464  0.69072260  0.75007554    -0.70000
O1094       O  0.80928432  0.77983468  0.74991791    -0.70000
O1095       O  0.77982160  0.80929483  0.75007537    -0.70000
O1096       O  0.69071235  0.72018315  0.74992392    -0.70000
O1097       O  0.73522827  0.76468635  0.82246056    -0.70000
O1098       O  0.73531873  0.76477857  0.67753825    -0.70200
V1099       V  0.76415302  0.73585511  0.74999685     1.35200
V1100       V  0.73584387  0.76416213  0.74999941     1.35200
C1101       C  0.74999910  0.75000864  0.65294475     0.79300
C1102       C  0.74999937  0.75000733  0.84705141     0.79300
C1103       C  0.69040216  0.69041156  0.75000042     0.79200
C1104       C  0.80959414  0.80960646  0.74999638     0.79200
C1105       C  0.65675488  0.65676382  0.75000237    -0.16700
C1106       C  0.62848399  0.62849309  0.75000483     0.07400
C1107       C  0.59538574  0.59539459  0.75000708     0.09200
C1108       C  0.56711194  0.56711995  0.75000728    -0.17500
C1109       C  0.84324101  0.84325427  0.74999576    -0.16700
C1110       C  0.87151278  0.87152466  0.74999586     0.07400
C1111       C  0.90461281  0.90462089  0.74999660     0.09200
C1112       C  0.93288877  0.93289390  0.74999773    -0.17500
C1113       C  0.65676095  0.50001451  0.75000322    -0.16700
C1114       C  0.62848983  0.50001420  0.75000177     0.07400
C1115       C  0.59538994  0.50001134  0.75000232     0.09200
C1116       C  0.56711416  0.50000862  0.75000392    -0.17500
C1117       C  0.93288738  0.50000434  0.74998996    -0.16700
C1118       C  0.90461160  0.50000103  0.74998662     0.07400
C1119       C  0.87151123  0.99999673  0.74998825     0.09200
C1120       C  0.84323993  0.49999562  0.74999377    -0.17500
C1121       C  0.65675896  0.65676052  0.00000180    -0.16700
C1122       C  0.62848778  0.62848974  0.50000413     0.07400
C1123       C  0.59538895  0.59539242  0.00000878     0.09200
C1124       C  0.56711398  0.56711835  0.00001304    -0.17500
C1125       C  0.93288789  0.93289612  0.00000996    -0.16700
C1126       C  0.90461260  0.90462206  0.50000660     0.07400
C1127       C  0.87151387  0.87152477  0.00000207     0.09200
C1128       C  0.84324226  0.84325332  0.99999877    -0.17500
C1129       C  0.56711225  0.50000549  0.00002067    -0.16700
C1130       C  0.59538742  0.00000558  0.00002245     0.07400
C1131       C  0.62848523  0.50000577  0.00002168     0.09200
C1132       C  0.65675666  0.00000540  0.00001877    -0.17500
C1133       C  0.84324563  0.00000661  0.99999999    -0.16700
C1134       C  0.87151653  0.50000748  0.00000204     0.07400
C1135       C  0.90461525  0.50000834  0.50000631     0.09200
C1136       C  0.93288967  0.50000878  0.00001002    -0.17500
C1137       C  0.49999844  0.56711796  0.75000032    -0.16700
C1138       C  0.49999709  0.59539135  0.74999893     0.07400
C1139       C  0.49999599  0.62848934  0.74999716     0.09200
C1140       C  0.49999589  0.65675994  0.74999549    -0.17500
C1141       C  0.50000157  0.93289483  0.75000298    -0.16700
C1142       C  0.49999969  0.90461938  0.75000087     0.07400
C1143       C  0.99999697  0.87151986  0.74999730     0.09200
C1144       C  0.49999598  0.84324842  0.74999443    -0.17500
C1145       C  0.00001063  0.65676692  0.99999841    -0.16700
C1146       C  0.50000838  0.62849563  0.50000334     0.07400
C1147       C  0.00000615  0.59539543  0.00000898     0.09200
C1148       C  0.50000321  0.56712100  0.00001238    -0.17500
C1149       C  0.49999849  0.93289278  0.00000864    -0.16700
C1150       C  0.49999604  0.90461786  0.50000267     0.07400
C1151       C  0.99999273  0.87151776  0.49999663     0.09200
C1152       C  0.99999067  0.84324657  0.99999369    -0.17500
loop_ 
_geom_bond_atom_site_label_1 
_geom_bond_atom_site_label_2 
_geom_bond_distance 
_geom_bond_site_symmetry_2 
_ccdc_geom_bond_type 
O1            V9   1.899   1_554  S
O1          C587   1.264       .  A
O2          V153   1.899       .  S
O2          C588   1.264       .  A
O3            V9   1.900       .  S
O3          C157   1.263       .  A
O4          V153   1.900       .  S
O4           C14   1.263       .  A
O5          V154   1.900       .  S
O5          C734   1.263   1_455  A
O6           V10   1.900       .  S
O6          C589   1.263       .  A
O7           V10   1.899       .  S
O7           C12   1.264   1_455  A
O8          V154   1.899   1_554  S
O8           C11   1.264       .  A
V9          O146   1.899       .  S
V9          O148   1.900   1_556  S
V9          V730   2.090       .  T
V10         O149   1.900       .  S
V10         O152   1.899       .  S
V10         V729   2.090   1_455  T
C11         O577   1.264   1_455  A
C11          C28   1.465   1_455  S
C12         O578   1.264       .  A
C12          C27   1.465       .  S
C13         O147   1.263       .  A
C13         O582   1.263       .  A
C13         C137   1.434       .  S
C14         O725   1.263       .  A
C14         C144   1.434       .  S
O15          V23   1.900       .  S
O15         C601   1.263       .  A
O16          V23   1.900       .  S
O16         C602   1.263       .  A
O17          V23   1.899       .  S
O17         C603   1.264       .  A
O18          V23   1.899       .  S
O18         C604   1.264       .  A
O19          V24   1.899       .  S
O19          C28   1.264   1_455  A
O20          V24   1.899       .  S
O20          C27   1.264   1_455  A
O21          V24   1.900       .  S
O21          C26   1.263   1_455  A
O22          V24   1.900       .  S
O22          C25   1.263   1_455  A
V23         V600   2.090       .  T
V24         V599   2.090   1_455  T
C25         O591   1.263       .  A
C25         C136   1.434       .  S
C26         O592   1.263       .  A
C26         C132   1.434       .  S
C27         O593   1.264       .  A
C28         O594   1.264       .  A
C29         C116   1.451       .  S
C29          C30   1.410       .  A
C29          C34   1.410       .  A
C30         C121   1.451       .  S
C30         C319   1.410   1_545  A
C31         C141   1.451   1_455  S
C31         C318   1.410       .  A
C31         C608   1.410   1_455  A
C32         C117   1.451       .  S
C32         C607   1.410       .  A
C32         C321   1.410       .  A
C33         C128   1.451       .  S
C33         C320   1.410   1_545  A
C33         C610   1.410       .  A
C34         C140   1.451       .  S
C34         C609   1.410   1_455  A
C35         C100   1.451       .  S
C35          C36   1.410       .  A
C35          C40   1.410   1_455  A
C36         C108   1.451       .  S
C36         C325   1.410   1_545  A
C37         C133   1.451       .  S
C37         C324   1.410       .  A
C37         C614   1.410   1_455  A
C38         C104   1.451       .  S
C38         C613   1.410       .  A
C38         C327   1.410       .  A
C39         C109   1.451       .  S
C39         C326   1.410   1_545  A
C39         C616   1.410       .  A
C40         C129   1.451       .  S
C40         C615   1.410       .  A
O41          V49   1.899       .  S
O41         C339   1.264       .  A
O42         V193   1.899       .  S
O42         C340   1.264       .  A
O43          V49   1.900       .  S
O43          C53   1.263       .  A
O44         V193   1.900   1_556  S
O44         C198   1.263   1_556  A
O45         V194   1.900       .  S
O45         C342   1.263       .  A
O46          V50   1.900   1_556  S
O46         C485   1.263   1_556  A
O47          V50   1.899       .  S
O47          C52   1.264       .  A
O48         V194   1.899       .  S
O48          C51   1.264       .  A
V49         O186   1.899       .  S
V49         O188   1.900       .  S
V49         V482   2.090       .  T
V50         O189   1.900       .  S
V50         O192   1.899   1_554  S
V50         V481   2.090   1_545  T
C51         O329   1.264   1_545  A
C51          C66   1.465       .  S
C52         O330   1.264   1_545  A
C52          C65   1.465       .  S
C53         O478   1.263       .  A
C53         C124   1.434       .  S
C54         O188   1.263       .  A
C54         O333   1.263       .  A
C54         C125   1.434       .  S
O55          V63   1.899       .  S
O55          C65   1.264       .  A
O56          V63   1.899       .  S
O56          C66   1.264       .  A
O57          V63   1.900       .  S
O57          C67   1.263   1_545  A
O58          V63   1.900       .  S
O58          C68   1.263       .  A
O59          V64   1.900       .  S
O59         C356   1.263       .  A
O60          V64   1.900       .  S
O60         C355   1.263       .  A
O61          V64   1.899       .  S
O61         C354   1.264       .  A
O62          V64   1.899       .  S
O62         C353   1.264       .  A
V63         V352   2.090   1_545  T
V64         V351   2.090       .  T
C65         O350   1.264   1_545  A
C66         O349   1.264   1_545  A
C67         O348   1.263       .  A
C67         C112   1.434       .  S
C68         O347   1.263   1_545  A
C68         C105   1.434       .  S
O69         V221   1.900       .  S
O69         C223   1.263   1_556  A
O70          V77   1.900       .  S
O70          C80   1.263       .  A
O71          V77   1.899       .  S
O71          C81   1.264       .  A
O72         V221   1.899   1_554  S
O72          C82   1.264       .  A
O73         V222   1.899   1_554  S
O73          C82   1.264       .  A
O74          V78   1.899       .  S
O74          C81   1.264       .  A
O75         V222   1.900       .  S
O75         C224   1.263       .  A
O76          V78   1.900       .  S
O76          C79   1.263       .  A
V77         O213   1.900       .  S
V77         O216   1.899       .  S
V77          V78   2.090       .  T
V78         O217   1.899       .  S
V78         O219   1.900       .  S
C79         O213   1.263       .  A
C79         C113   1.434       .  S
C80         O219   1.263       .  A
C80         C120   1.434       .  S
C81          C94   1.465       .  S
C82          C93   1.465       .  S
O83          V91   1.899       .  S
O83          C93   1.264       .  A
O84          V91   1.899       .  S
O84          C94   1.264       .  A
O85          V91   1.900       .  S
O85          C95   1.263       .  A
O86          V91   1.900       .  S
O86          C96   1.263       .  A
O87          V92   1.900       .  S
O87          C96   1.263       .  A
O88          V92   1.900       .  S
O88          C95   1.263       .  A
O89          V92   1.899       .  S
O89          C94   1.264       .  A
O90          V92   1.899       .  S
O90          C93   1.264       .  A
V91          V92   2.090       .  T
C95          C97   1.434       .  S
C96         C101   1.434       .  S
C97          C98   1.205       .  T
C98          C99   1.411       .  S
C99         C100   1.205       .  T
C101        C102   1.205       .  T
C102        C103   1.411       .  S
C103        C104   1.205       .  T
C105        C106   1.205       .  T
C106        C107   1.411       .  S
C107        C108   1.205       .  T
C109        C110   1.205       .  T
C110        C399   1.411   1_545  S
C111        C400   1.205       .  T
C111        C398   1.411       .  S
C112        C399   1.205       .  T
C113        C258   1.205       .  T
C114        C257   1.205       .  T
C114        C259   1.411       .  S
C115        C116   1.205       .  T
C115        C258   1.411       .  S
C117        C262   1.205       .  T
C118        C261   1.205       .  T
C118        C263   1.411       .  S
C119        C120   1.205       .  T
C119        C262   1.411       .  S
C121        C410   1.205       .  T
C122        C409   1.205       .  T
C122        C411   1.411       .  S
C123        C412   1.205       .  T
C123        C410   1.411       .  S
C124        C411   1.205       .  T
C125        C414   1.205       .  T
C126        C413   1.205       .  T
C126        C271   1.411       .  S
C127        C272   1.205       .  T
C127        C270   1.411       .  S
C128        C271   1.205       .  T
C129        C130   1.205       .  T
C130        C131   1.411       .  S
C131        C132   1.205       .  T
C133        C134   1.205   1_455  T
C134        C711   1.411       .  S
C135        C712   1.205       .  T
C135        C710   1.411       .  S
C136        C711   1.205       .  T
C137        C858   1.205       .  T
C138        C857   1.205   1_554  T
C138        C859   1.411       .  S
C139        C716   1.205       .  T
C139        C858   1.411       .  S
C140        C715   1.205       .  T
C141        C286   1.205       .  T
C142        C285   1.205       .  T
C142        C719   1.411   1_554  S
C143        C288   1.205       .  T
C143        C718   1.411   1_556  S
C144        C287   1.205       .  T
O145        V153   1.899       .  S
O145        C731   1.264       .  A
O146        C732   1.264       .  A
O147        V153   1.900       .  S
O148        C158   1.263   1_554  A
O149        C590   1.263   1_455  A
O150        V154   1.900   1_554  S
O150        C733   1.263   1_554  A
O151        V154   1.899       .  S
O151        C156   1.264   1_455  A
O152        C155   1.264       .  A
V153        V586   2.090       .  T
V154        V585   2.090   1_455  T
C155        O721   1.264   1_455  A
C155        C172   1.465   1_455  S
C156        O722   1.264       .  A
C156        C171   1.465       .  S
C157        O726   1.263   1_556  A
C157        C281   1.434       .  S
C158        O581   1.263       .  A
C158        C288   1.434       .  S
O159        V167   1.900       .  S
O159        C745   1.263       .  A
O160        V167   1.900       .  S
O160        C746   1.263       .  A
O161        V167   1.899       .  S
O161        C747   1.264       .  A
O162        V167   1.899       .  S
O162        C748   1.264       .  A
O163        V168   1.899       .  S
O163        C172   1.264   1_455  A
O164        V168   1.899       .  S
O164        C171   1.264   1_455  A
O165        V168   1.900       .  S
O165        C170   1.263   1_455  A
O166        V168   1.900       .  S
O166        C169   1.263   1_455  A
V167        V744   2.090       .  T
V168        V743   2.090   1_455  T
C169        O735   1.263       .  A
C169        C280   1.434       .  S
C170        O736   1.263       .  A
C170        C276   1.434       .  S
C171        O737   1.264       .  A
C172        O738   1.264       .  A
C173        C260   1.451       .  S
C173        C174   1.410       .  A
C173        C178   1.410       .  A
C174        C265   1.451       .  S
C174        C463   1.410   1_545  A
C175        C285   1.451   1_455  S
C175        C462   1.410       .  A
C175        C752   1.410   1_455  A
C176        C261   1.451       .  S
C176        C751   1.410       .  A
C176        C465   1.410       .  A
C177        C272   1.451       .  S
C177        C464   1.410   1_545  A
C177        C754   1.410       .  A
C178        C284   1.451       .  S
C178        C753   1.410   1_455  A
C179        C244   1.451       .  S
C179        C180   1.410       .  A
C179        C184   1.410   1_455  A
C180        C252   1.451       .  S
C180        C469   1.410   1_545  A
C181        C277   1.451       .  S
C181        C468   1.410       .  A
C181        C758   1.410   1_455  A
C182        C248   1.451       .  S
C182        C757   1.410       .  A
C182        C471   1.410       .  A
C183        C253   1.451       .  S
C183        C470   1.410   1_545  A
C183        C760   1.410       .  A
C184        C273   1.451       .  S
C184        C759   1.410       .  A
O185        V193   1.899   1_556  S
O185        C483   1.264       .  A
O186        C484   1.264       .  A
O187        V193   1.900       .  S
O187        C197   1.263       .  A
O189        C486   1.263       .  A
O190        V194   1.900       .  S
O190        C341   1.263       .  A
O191        V194   1.899       .  S
O191        C196   1.264       .  A
O192        C195   1.264       .  A
V193        V338   2.090       .  T
V194        V337   2.090   1_545  T
C195        O473   1.264   1_545  A
C195        C210   1.465       .  S
C196        O474   1.264   1_545  A
C196        C209   1.465       .  S
C197        O334   1.263   1_554  A
C197        C268   1.434       .  S
C198        O477   1.263       .  A
C198        C269   1.434       .  S
O199        V207   1.899       .  S
O199        C209   1.264       .  A
O200        V207   1.899       .  S
O200        C210   1.264       .  A
O201        V207   1.900       .  S
O201        C211   1.263   1_545  A
O202        V207   1.900       .  S
O202        C212   1.263       .  A
O203        V208   1.900       .  S
O203        C500   1.263       .  A
O204        V208   1.900       .  S
O204        C499   1.263       .  A
O205        V208   1.899       .  S
O205        C498   1.264       .  A
O206        V208   1.899       .  S
O206        C497   1.264       .  A
V207        V496   2.090   1_545  T
V208        V495   2.090       .  T
C209        O494   1.264   1_545  A
C210        O493   1.264   1_545  A
C211        O492   1.263       .  A
C211        C256   1.434       .  S
C212        O491   1.263   1_545  A
C212        C249   1.434       .  S
O214        V221   1.900   1_554  S
O214        C224   1.263   1_554  A
O215        V221   1.899       .  S
O215        C225   1.264       .  A
O216        C226   1.264       .  A
O217        C226   1.264       .  A
O218        V222   1.899       .  S
O218        C225   1.264       .  A
O220        V222   1.900   1_554  S
O220        C223   1.263       .  A
V221        V222   2.090       .  T
C223        C257   1.434       .  S
C224        C264   1.434       .  S
C225        C238   1.465       .  S
C226        C237   1.465       .  S
O227        V235   1.899       .  S
O227        C237   1.264       .  A
O228        V235   1.899       .  S
O228        C238   1.264       .  A
O229        V235   1.900       .  S
O229        C239   1.263       .  A
O230        V235   1.900       .  S
O230        C240   1.263       .  A
O231        V236   1.900       .  S
O231        C240   1.263       .  A
O232        V236   1.900       .  S
O232        C239   1.263       .  A
O233        V236   1.899       .  S
O233        C238   1.264       .  A
O234        V236   1.899       .  S
O234        C237   1.264       .  A
V235        V236   2.090       .  T
C239        C241   1.434       .  S
C240        C245   1.434       .  S
C241        C242   1.205       .  T
C242        C243   1.411       .  S
C243        C244   1.205       .  T
C245        C246   1.205       .  T
C246        C247   1.411       .  S
C247        C248   1.205       .  T
C249        C250   1.205       .  T
C250        C251   1.411       .  S
C251        C252   1.205       .  T
C253        C254   1.205       .  T
C254        C543   1.411   1_545  S
C255        C544   1.205       .  T
C255        C542   1.411       .  S
C256        C543   1.205       .  T
C259        C260   1.205       .  T
C263        C264   1.205   1_554  T
C265        C554   1.205       .  T
C266        C553   1.205       .  T
C266        C555   1.411       .  S
C267        C556   1.205       .  T
C267        C554   1.411       .  S
C268        C555   1.205       .  T
C269        C558   1.205       .  T
C270        C557   1.205   1_554  T
C273        C274   1.205       .  T
C274        C275   1.411       .  S
C275        C276   1.205       .  T
C277        C278   1.205   1_455  T
C278        C855   1.411       .  S
C279        C856   1.205       .  T
C279        C854   1.411       .  S
C280        C855   1.205       .  T
C281        C714   1.205   1_556  T
C282        C713   1.205       .  T
C282        C715   1.411       .  S
C283        C860   1.205       .  T
C283        C714   1.411       .  S
C284        C859   1.205       .  T
C286        C863   1.411       .  S
C287        C862   1.411       .  S
O289        V297   1.899   1_554  S
O289        C875   1.264       .  A
O290        V441   1.899       .  S
O290        C876   1.264       .  A
O291        V297   1.900       .  S
O291        C445   1.263       .  A
O292        V441   1.900       .  S
O292        C302   1.263       .  A
O293        V442   1.900       .  S
O293       C1022   1.263   1_455  A
O294        V298   1.900       .  S
O294        C877   1.263       .  A
O295        V298   1.899       .  S
O295        C300   1.264   1_455  A
O296        V442   1.899   1_554  S
O296        C299   1.264   1_455  A
V297        O434   1.899       .  S
V297        O436   1.900   1_556  S
V297       V1018   2.090       .  T
V298        O437   1.900       .  S
V298        O440   1.899       .  S
V298       V1017   2.090   1_455  T
C299        O865   1.264       .  A
C299        C316   1.465       .  S
C300        O866   1.264       .  A
C300        C315   1.465       .  S
C301        O435   1.263       .  A
C301        O870   1.263       .  A
C301        C425   1.434       .  S
C302       O1013   1.263       .  A
C302        C432   1.434       .  S
O303        V311   1.900       .  S
O303        C889   1.263       .  A
O304        V311   1.900       .  S
O304        C890   1.263       .  A
O305        V311   1.899       .  S
O305        C891   1.264       .  A
O306        V311   1.899       .  S
O306        C892   1.264       .  A
O307        V312   1.899       .  S
O307        C316   1.264   1_455  A
O308        V312   1.899       .  S
O308        C315   1.264   1_455  A
O309        V312   1.900       .  S
O309        C314   1.263   1_455  A
O310        V312   1.900       .  S
O310        C313   1.263   1_455  A
V311        V888   2.090       .  T
V312        V887   2.090   1_455  T
C313        O879   1.263       .  A
C313        C424   1.434       .  S
C314        O880   1.263       .  A
C314        C420   1.434       .  S
C315        O881   1.264       .  A
C316        O882   1.264       .  A
C317        C404   1.451       .  S
C317        C318   1.410       .  A
C317        C322   1.410       .  A
C318        C409   1.451       .  S
C319        C429   1.451   1_455  S
C319        C896   1.410   1_455  A
C320        C405   1.451       .  S
C320        C895   1.410       .  A
C321        C416   1.451       .  S
C321        C898   1.410       .  A
C322        C428   1.451       .  S
C322        C897   1.410   1_455  A
C323        C388   1.451       .  S
C323        C324   1.410       .  A
C323        C328   1.410   1_455  A
C324        C396   1.451       .  S
C325        C421   1.451       .  S
C325        C902   1.410   1_455  A
C326        C392   1.451       .  S
C326        C901   1.410       .  A
C327        C397   1.451       .  S
C327        C904   1.410       .  A
C328        C417   1.451       .  S
C328        C903   1.410       .  A
O329        V337   1.899       .  S
O330        V481   1.899       .  S
O331        V337   1.900       .  S
O331        C341   1.263   1_565  A
O332        V481   1.900   1_556  S
O332        C486   1.263   1_566  A
O333        V482   1.900       .  S
O334        V338   1.900   1_556  S
O335        V338   1.899       .  S
O335        C340   1.264       .  A
O336        V482   1.899       .  S
O336        C339   1.264       .  A
V337        O474   1.899       .  S
V337        O476   1.900       .  S
V338        O477   1.900       .  S
V338        O480   1.899   1_554  S
C339        C354   1.465       .  S
C340        C353   1.465       .  S
C341        C412   1.434       .  S
C342        O476   1.263   1_545  A
C342        C413   1.434       .  S
O343        V351   1.899       .  S
O343        C353   1.264       .  A
O344        V351   1.899       .  S
O344        C354   1.264       .  A
O345        V351   1.900       .  S
O345        C355   1.263       .  A
O346        V351   1.900       .  S
O346        C356   1.263       .  A
O347        V352   1.900       .  S
O348        V352   1.900       .  S
O349        V352   1.899       .  S
O350        V352   1.899       .  S
C355        C400   1.434       .  S
C356        C393   1.434       .  S
O357        V509   1.900       .  S
O357        C511   1.263   1_556  A
O358        V365   1.900       .  S
O358        C368   1.263       .  A
O359        V365   1.899       .  S
O359        C369   1.264       .  A
O360        V509   1.899   1_554  S
O360        C370   1.264       .  A
O361        V510   1.899   1_554  S
O361        C370   1.264       .  A
O362        V366   1.899       .  S
O362        C369   1.264       .  A
O363        V510   1.900       .  S
O363        C512   1.263       .  A
O364        V366   1.900       .  S
O364        C367   1.263       .  A
V365        O501   1.900       .  S
V365        O504   1.899       .  S
V365        V366   2.090       .  T
V366        O505   1.899       .  S
V366        O507   1.900       .  S
C367        O501   1.263       .  A
C367        C401   1.434       .  S
C368        O507   1.263       .  A
C368        C408   1.434       .  S
C369        C382   1.465       .  S
C370        C381   1.465       .  S
O371        V379   1.899       .  S
O371        C381   1.264       .  A
O372        V379   1.899       .  S
O372        C382   1.264       .  A
O373        V379   1.900       .  S
O373        C383   1.263       .  A
O374        V379   1.900       .  S
O374        C384   1.263       .  A
O375        V380   1.900       .  S
O375        C384   1.263       .  A
O376        V380   1.900       .  S
O376        C383   1.263       .  A
O377        V380   1.899       .  S
O377        C382   1.264       .  A
O378        V380   1.899       .  S
O378        C381   1.264       .  A
V379        V380   2.090       .  T
C383        C385   1.434       .  S
C384        C389   1.434       .  S
C385        C386   1.205       .  T
C386        C387   1.411       .  S
C387        C388   1.205       .  T
C389        C390   1.205       .  T
C390        C391   1.411       .  S
C391        C392   1.205       .  T
C393        C394   1.205       .  T
C394        C395   1.411       .  S
C395        C396   1.205       .  T
C397        C398   1.205       .  T
C401        C546   1.205       .  T
C402        C545   1.205       .  T
C402        C547   1.411       .  S
C403        C404   1.205       .  T
C403        C546   1.411       .  S
C405        C550   1.205       .  T
C406        C549   1.205       .  T
C406        C551   1.411       .  S
C407        C408   1.205       .  T
C407        C550   1.411       .  S
C414        C559   1.411       .  S
C415        C560   1.205       .  T
C415        C558   1.411       .  S
C416        C559   1.205       .  T
C417        C418   1.205       .  T
C418        C419   1.411       .  S
C419        C420   1.205       .  T
C421        C422   1.205   1_455  T
C422        C999   1.411       .  S
C423       C1000   1.205       .  T
C423        C998   1.411       .  S
C424        C999   1.205       .  T
C425       C1146   1.205       .  T
C426       C1145   1.205   1_554  T
C426       C1147   1.411       .  S
C427       C1004   1.205       .  T
C427       C1146   1.411       .  S
C428       C1003   1.205       .  T
C429        C574   1.205       .  T
C430        C573   1.205       .  T
C430       C1007   1.411   1_554  S
C431        C576   1.205       .  T
C431       C1006   1.411   1_556  S
C432        C575   1.205       .  T
O433        V441   1.899       .  S
O433       C1019   1.264       .  A
O434       C1020   1.264       .  A
O435        V441   1.900       .  S
O436        C446   1.263   1_554  A
O437        C878   1.263   1_455  A
O438        V442   1.900   1_554  S
O438       C1021   1.263   1_554  A
O439        V442   1.899       .  S
O439        C444   1.264   1_455  A
O440        C443   1.264       .  A
V441        V874   2.090       .  T
V442        V873   2.090   1_455  T
C443       O1009   1.264   1_455  A
C443        C460   1.465   1_455  S
C444       O1010   1.264       .  A
C444        C459   1.465       .  S
C445       O1014   1.263   1_556  A
C445        C569   1.434       .  S
C446        O869   1.263       .  A
C446        C576   1.434       .  S
O447        V455   1.900       .  S
O447       C1033   1.263       .  A
O448        V455   1.900       .  S
O448       C1034   1.263       .  A
O449        V455   1.899       .  S
O449       C1035   1.264       .  A
O450        V455   1.899       .  S
O450       C1036   1.264       .  A
O451        V456   1.899       .  S
O451        C460   1.264   1_455  A
O452        V456   1.899       .  S
O452        C459   1.264   1_455  A
O453        V456   1.900       .  S
O453        C458   1.263   1_455  A
O454        V456   1.900       .  S
O454        C457   1.263   1_455  A
V455       V1032   2.090       .  T
V456       V1031   2.090   1_455  T
C457       O1023   1.263       .  A
C457        C568   1.434       .  S
C458       O1024   1.263       .  A
C458        C564   1.434       .  S
C459       O1025   1.264       .  A
C460       O1026   1.264       .  A
C461        C548   1.451       .  S
C461        C462   1.410       .  A
C461        C466   1.410       .  A
C462        C553   1.451       .  S
C463        C573   1.451   1_455  S
C463       C1040   1.410   1_455  A
C464        C549   1.451       .  S
C464       C1039   1.410       .  A
C465        C560   1.451       .  S
C465       C1042   1.410       .  A
C466        C572   1.451       .  S
C466       C1041   1.410   1_455  A
C467        C532   1.451       .  S
C467        C468   1.410       .  A
C467        C472   1.410   1_455  A
C468        C540   1.451       .  S
C469        C565   1.451       .  S
C469       C1046   1.410   1_455  A
C470        C536   1.451       .  S
C470       C1045   1.410       .  A
C471        C541   1.451       .  S
C471       C1048   1.410       .  A
C472        C561   1.451       .  S
C472       C1047   1.410       .  A
O473        V481   1.899   1_556  S
O475        V481   1.900       .  S
O475        C485   1.263   1_565  A
O478        V482   1.900       .  S
O479        V482   1.899       .  S
O479        C484   1.264       .  A
O480        C483   1.264       .  A
C483        C498   1.465       .  S
C484        C497   1.465       .  S
C485        C556   1.434       .  S
C486        C557   1.434   1_554  S
O487        V495   1.899       .  S
O487        C497   1.264       .  A
O488        V495   1.899       .  S
O488        C498   1.264       .  A
O489        V495   1.900       .  S
O489        C499   1.263       .  A
O490        V495   1.900       .  S
O490        C500   1.263       .  A
O491        V496   1.900       .  S
O492        V496   1.900       .  S
O493        V496   1.899       .  S
O494        V496   1.899       .  S
C499        C544   1.434       .  S
C500        C537   1.434       .  S
O502        V509   1.900   1_554  S
O502        C512   1.263   1_554  A
O503        V509   1.899       .  S
O503        C513   1.264       .  A
O504        C514   1.264       .  A
O505        C514   1.264       .  A
O506        V510   1.899       .  S
O506        C513   1.264       .  A
O508        V510   1.900   1_554  S
O508        C511   1.263       .  A
V509        V510   2.090       .  T
C511        C545   1.434       .  S
C512        C552   1.434       .  S
C513        C526   1.465       .  S
C514        C525   1.465       .  S
O515        V523   1.899       .  S
O515        C525   1.264       .  A
O516        V523   1.899       .  S
O516        C526   1.264       .  A
O517        V523   1.900       .  S
O517        C527   1.263       .  A
O518        V523   1.900       .  S
O518        C528   1.263       .  A
O519        V524   1.900       .  S
O519        C528   1.263       .  A
O520        V524   1.900       .  S
O520        C527   1.263       .  A
O521        V524   1.899       .  S
O521        C526   1.264       .  A
O522        V524   1.899       .  S
O522        C525   1.264       .  A
V523        V524   2.090       .  T
C527        C529   1.434       .  S
C528        C533   1.434       .  S
C529        C530   1.205       .  T
C530        C531   1.411       .  S
C531        C532   1.205       .  T
C533        C534   1.205       .  T
C534        C535   1.411       .  S
C535        C536   1.205       .  T
C537        C538   1.205       .  T
C538        C539   1.411       .  S
C539        C540   1.205       .  T
C541        C542   1.205       .  T
C547        C548   1.205       .  T
C551        C552   1.205   1_554  T
C561        C562   1.205       .  T
C562        C563   1.411       .  S
C563        C564   1.205       .  T
C565        C566   1.205   1_455  T
C566       C1143   1.411       .  S
C567       C1144   1.205       .  T
C567       C1142   1.411       .  S
C568       C1143   1.205       .  T
C569       C1002   1.205   1_556  T
C570       C1001   1.205       .  T
C570       C1003   1.411       .  S
C571       C1148   1.205       .  T
C571       C1002   1.411       .  S
C572       C1147   1.205       .  T
C574       C1151   1.411       .  S
C575       C1150   1.411       .  S
O577        V585   1.899   1_554  S
O578        V729   1.899       .  S
O579        V585   1.900       .  S
O579        C733   1.263   1_655  A
O580        V729   1.900       .  S
O580        C590   1.263       .  A
O581        V730   1.900       .  S
O582        V586   1.900       .  S
O583        V586   1.899       .  S
O583        C588   1.264       .  A
O584        V730   1.899   1_554  S
O584        C587   1.264       .  A
V585        O722   1.899       .  S
V585        O724   1.900   1_556  S
V586        O725   1.900       .  S
V586        O728   1.899       .  S
C587        C604   1.465       .  S
C588        C603   1.465       .  S
C589        O723   1.263   1_455  A
C589        C713   1.434       .  S
C590        C720   1.434       .  S
O591        V599   1.900       .  S
O592        V599   1.900       .  S
O593        V599   1.899       .  S
O594        V599   1.899       .  S
O595        V600   1.899       .  S
O595        C604   1.264       .  A
O596        V600   1.899       .  S
O596        C603   1.264       .  A
O597        V600   1.900       .  S
O597        C602   1.263       .  A
O598        V600   1.900       .  S
O598        C601   1.263       .  A
C601        C712   1.434       .  S
C602        C708   1.434       .  S
C605        C692   1.451       .  S
C605        C606   1.410       .  A
C605        C610   1.410       .  A
C606        C697   1.451       .  S
C606        C895   1.410   1_545  A
C607        C717   1.451       .  S
C607        C894   1.410       .  A
C608        C693   1.451       .  S
C608        C897   1.410       .  A
C609        C704   1.451       .  S
C609        C896   1.410   1_545  A
C610        C716   1.451       .  S
C611        C676   1.451       .  S
C611        C612   1.410       .  A
C611        C616   1.410       .  A
C612        C684   1.451       .  S
C612        C901   1.410   1_545  A
C613        C709   1.451       .  S
C613        C900   1.410       .  A
C614        C680   1.451       .  S
C614        C903   1.410       .  A
C615        C685   1.451       .  S
C615        C902   1.410   1_545  A
C616        C705   1.451       .  S
O617        V625   1.899       .  S
O617        C915   1.264       .  A
O618        V769   1.899       .  S
O618        C916   1.264       .  A
O619        V625   1.900       .  S
O619        C629   1.263       .  A
O620        V769   1.900   1_556  S
O620        C774   1.263   1_556  A
O621        V770   1.900       .  S
O621        C918   1.263       .  A
O622        V626   1.900   1_556  S
O622       C1061   1.263   1_556  A
O623        V626   1.899       .  S
O623        C628   1.264       .  A
O624        V770   1.899       .  S
O624        C627   1.264       .  A
V625        O762   1.899       .  S
V625        O764   1.900       .  S
V625       V1058   2.090       .  T
V626        O765   1.900       .  S
V626        O768   1.899   1_554  S
V626       V1057   2.090   1_545  T
C627        O905   1.264   1_545  A
C627        C642   1.465       .  S
C628        O906   1.264   1_545  A
C628        C641   1.465       .  S
C629       O1054   1.263       .  A
C629        C700   1.434       .  S
C630        O764   1.263       .  A
C630        O909   1.263       .  A
C630        C701   1.434       .  S
O631        V639   1.899       .  S
O631        C641   1.264       .  A
O632        V639   1.899       .  S
O632        C642   1.264       .  A
O633        V639   1.900       .  S
O633        C643   1.263   1_545  A
O634        V639   1.900       .  S
O634        C644   1.263       .  A
O635        V640   1.900       .  S
O635        C932   1.263       .  A
O636        V640   1.900       .  S
O636        C931   1.263       .  A
O637        V640   1.899       .  S
O637        C930   1.264       .  A
O638        V640   1.899       .  S
O638        C929   1.264       .  A
V639        V928   2.090   1_545  T
V640        V927   2.090       .  T
C641        O926   1.264   1_545  A
C642        O925   1.264   1_545  A
C643        O924   1.263       .  A
C643        C688   1.434       .  S
C644        O923   1.263   1_545  A
C644        C681   1.434       .  S
O645        V797   1.900       .  S
O645        C799   1.263   1_556  A
O646        V653   1.900       .  S
O646        C656   1.263       .  A
O647        V653   1.899       .  S
O647        C657   1.264       .  A
O648        V797   1.899   1_554  S
O648        C658   1.264       .  A
O649        V798   1.899   1_554  S
O649        C658   1.264       .  A
O650        V654   1.899       .  S
O650        C657   1.264       .  A
O651        V798   1.900       .  S
O651        C800   1.263       .  A
O652        V654   1.900       .  S
O652        C655   1.263       .  A
V653        O789   1.900       .  S
V653        O792   1.899       .  S
V653        V654   2.090       .  T
V654        O793   1.899       .  S
V654        O795   1.900       .  S
C655        O789   1.263       .  A
C655        C689   1.434       .  S
C656        O795   1.263       .  A
C656        C696   1.434       .  S
C657        C670   1.465       .  S
C658        C669   1.465       .  S
O659        V667   1.899       .  S
O659        C669   1.264       .  A
O660        V667   1.899       .  S
O660        C670   1.264       .  A
O661        V667   1.900       .  S
O661        C671   1.263       .  A
O662        V667   1.900       .  S
O662        C672   1.263       .  A
O663        V668   1.900       .  S
O663        C672   1.263       .  A
O664        V668   1.900       .  S
O664        C671   1.263       .  A
O665        V668   1.899       .  S
O665        C670   1.264       .  A
O666        V668   1.899       .  S
O666        C669   1.264       .  A
V667        V668   2.090       .  T
C671        C673   1.434       .  S
C672        C677   1.434       .  S
C673        C674   1.205       .  T
C674        C675   1.411       .  S
C675        C676   1.205       .  T
C677        C678   1.205       .  T
C678        C679   1.411       .  S
C679        C680   1.205       .  T
C681        C682   1.205       .  T
C682        C683   1.411       .  S
C683        C684   1.205       .  T
C685        C686   1.205       .  T
C686        C975   1.411   1_545  S
C687        C976   1.205       .  T
C687        C974   1.411       .  S
C688        C975   1.205       .  T
C689        C834   1.205       .  T
C690        C833   1.205       .  T
C690        C835   1.411       .  S
C691        C692   1.205       .  T
C691        C834   1.411       .  S
C693        C838   1.205       .  T
C694        C837   1.205       .  T
C694        C839   1.411       .  S
C695        C696   1.205       .  T
C695        C838   1.411       .  S
C697        C986   1.205       .  T
C698        C985   1.205       .  T
C698        C987   1.411       .  S
C699        C988   1.205       .  T
C699        C986   1.411       .  S
C700        C987   1.205       .  T
C701        C990   1.205       .  T
C702        C989   1.205       .  T
C702        C847   1.411       .  S
C703        C848   1.205       .  T
C703        C846   1.411       .  S
C704        C847   1.205       .  T
C705        C706   1.205       .  T
C706        C707   1.411       .  S
C707        C708   1.205       .  T
C709        C710   1.205       .  T
C717        C862   1.205       .  T
C718        C861   1.205       .  T
C719        C864   1.205       .  T
C720        C863   1.205       .  T
O721        V729   1.899       .  S
O723        V729   1.900       .  S
O724        C734   1.263   1_554  A
O726        V730   1.900   1_554  S
O727        V730   1.899       .  S
O727        C732   1.264       .  A
O728        C731   1.264       .  A
C731        C748   1.465       .  S
C732        C747   1.465       .  S
C733        C857   1.434       .  S
C734        C864   1.434       .  S
O735        V743   1.900       .  S
O736        V743   1.900       .  S
O737        V743   1.899       .  S
O738        V743   1.899       .  S
O739        V744   1.899       .  S
O739        C748   1.264       .  A
O740        V744   1.899       .  S
O740        C747   1.264       .  A
O741        V744   1.900       .  S
O741        C746   1.263       .  A
O742        V744   1.900       .  S
O742        C745   1.263       .  A
C745        C856   1.434       .  S
C746        C852   1.434       .  S
C749        C836   1.451       .  S
C749        C750   1.410       .  A
C749        C754   1.410       .  A
C750        C841   1.451       .  S
C750       C1039   1.410   1_545  A
C751        C861   1.451       .  S
C751       C1038   1.410       .  A
C752        C837   1.451       .  S
C752       C1041   1.410       .  A
C753        C848   1.451       .  S
C753       C1040   1.410   1_545  A
C754        C860   1.451       .  S
C755        C820   1.451       .  S
C755        C756   1.410       .  A
C755        C760   1.410       .  A
C756        C828   1.451       .  S
C756       C1045   1.410   1_545  A
C757        C853   1.451       .  S
C757       C1044   1.410       .  A
C758        C824   1.451       .  S
C758       C1047   1.410       .  A
C759        C829   1.451       .  S
C759       C1046   1.410   1_545  A
C760        C849   1.451       .  S
O761        V769   1.899   1_556  S
O761       C1059   1.264       .  A
O762       C1060   1.264       .  A
O763        V769   1.900       .  S
O763        C773   1.263       .  A
O765       C1062   1.263       .  A
O766        V770   1.900       .  S
O766        C917   1.263       .  A
O767        V770   1.899       .  S
O767        C772   1.264       .  A
O768        C771   1.264       .  A
V769        V914   2.090       .  T
V770        V913   2.090   1_545  T
C771       O1049   1.264   1_545  A
C771        C786   1.465       .  S
C772       O1050   1.264   1_545  A
C772        C785   1.465       .  S
C773        O910   1.263   1_554  A
C773        C844   1.434       .  S
C774       O1053   1.263       .  A
C774        C845   1.434       .  S
O775        V783   1.899       .  S
O775        C785   1.264       .  A
O776        V783   1.899       .  S
O776        C786   1.264       .  A
O777        V783   1.900       .  S
O777        C787   1.263   1_545  A
O778        V783   1.900       .  S
O778        C788   1.263       .  A
O779        V784   1.900       .  S
O779       C1076   1.263       .  A
O780        V784   1.900       .  S
O780       C1075   1.263       .  A
O781        V784   1.899       .  S
O781       C1074   1.264       .  A
O782        V784   1.899       .  S
O782       C1073   1.264       .  A
V783       V1072   2.090   1_545  T
V784       V1071   2.090       .  T
C785       O1070   1.264   1_545  A
C786       O1069   1.264   1_545  A
C787       O1068   1.263       .  A
C787        C832   1.434       .  S
C788       O1067   1.263   1_545  A
C788        C825   1.434       .  S
O790        V797   1.900   1_554  S
O790        C800   1.263   1_554  A
O791        V797   1.899       .  S
O791        C801   1.264       .  A
O792        C802   1.264       .  A
O793        C802   1.264       .  A
O794        V798   1.899       .  S
O794        C801   1.264       .  A
O796        V798   1.900   1_554  S
O796        C799   1.263       .  A
V797        V798   2.090       .  T
C799        C833   1.434       .  S
C800        C840   1.434       .  S
C801        C814   1.465       .  S
C802        C813   1.465       .  S
O803        V811   1.899       .  S
O803        C813   1.264       .  A
O804        V811   1.899       .  S
O804        C814   1.264       .  A
O805        V811   1.900       .  S
O805        C815   1.263       .  A
O806        V811   1.900       .  S
O806        C816   1.263       .  A
O807        V812   1.900       .  S
O807        C816   1.263       .  A
O808        V812   1.900       .  S
O808        C815   1.263       .  A
O809        V812   1.899       .  S
O809        C814   1.264       .  A
O810        V812   1.899       .  S
O810        C813   1.264       .  A
V811        V812   2.090       .  T
C815        C817   1.434       .  S
C816        C821   1.434       .  S
C817        C818   1.205       .  T
C818        C819   1.411       .  S
C819        C820   1.205       .  T
C821        C822   1.205       .  T
C822        C823   1.411       .  S
C823        C824   1.205       .  T
C825        C826   1.205       .  T
C826        C827   1.411       .  S
C827        C828   1.205       .  T
C829        C830   1.205       .  T
C830       C1119   1.411   1_545  S
C831       C1120   1.205       .  T
C831       C1118   1.411       .  S
C832       C1119   1.205       .  T
C835        C836   1.205       .  T
C839        C840   1.205   1_554  T
C841       C1130   1.205       .  T
C842       C1129   1.205       .  T
C842       C1131   1.411       .  S
C843       C1132   1.205       .  T
C843       C1130   1.411       .  S
C844       C1131   1.205       .  T
C845       C1134   1.205       .  T
C846       C1133   1.205   1_554  T
C849        C850   1.205       .  T
C850        C851   1.411       .  S
C851        C852   1.205       .  T
C853        C854   1.205       .  T
O865        V873   1.899   1_554  S
O866       V1017   1.899       .  S
O867        V873   1.900       .  S
O867       C1021   1.263   1_655  A
O868       V1017   1.900       .  S
O868        C878   1.263       .  A
O869       V1018   1.900       .  S
O870        V874   1.900       .  S
O871        V874   1.899       .  S
O871        C876   1.264       .  A
O872       V1018   1.899   1_554  S
O872        C875   1.264       .  A
V873       O1010   1.899       .  S
V873       O1012   1.900   1_556  S
V874       O1013   1.900       .  S
V874       O1016   1.899       .  S
C875        C892   1.465       .  S
C876        C891   1.465       .  S
C877       O1011   1.263   1_455  A
C877       C1001   1.434       .  S
C878       C1008   1.434       .  S
O879        V887   1.900       .  S
O880        V887   1.900       .  S
O881        V887   1.899       .  S
O882        V887   1.899       .  S
O883        V888   1.899       .  S
O883        C892   1.264       .  A
O884        V888   1.899       .  S
O884        C891   1.264       .  A
O885        V888   1.900       .  S
O885        C890   1.263       .  A
O886        V888   1.900       .  S
O886        C889   1.263       .  A
C889       C1000   1.434       .  S
C890        C996   1.434       .  S
C893        C980   1.451       .  S
C893        C894   1.410       .  A
C893        C898   1.410       .  A
C894        C985   1.451       .  S
C895       C1005   1.451       .  S
C896        C981   1.451       .  S
C897        C992   1.451       .  S
C898       C1004   1.451       .  S
C899        C964   1.451       .  S
C899        C900   1.410       .  A
C899        C904   1.410       .  A
C900        C972   1.451       .  S
C901        C997   1.451       .  S
C902        C968   1.451       .  S
C903        C973   1.451       .  S
C904        C993   1.451       .  S
O905        V913   1.899       .  S
O906       V1057   1.899       .  S
O907        V913   1.900       .  S
O907        C917   1.263   1_565  A
O908       V1057   1.900   1_556  S
O908       C1062   1.263   1_566  A
O909       V1058   1.900       .  S
O910        V914   1.900   1_556  S
O911        V914   1.899       .  S
O911        C916   1.264       .  A
O912       V1058   1.899       .  S
O912        C915   1.264       .  A
V913       O1050   1.899       .  S
V913       O1052   1.900       .  S
V914       O1053   1.900       .  S
V914       O1056   1.899   1_554  S
C915        C930   1.465       .  S
C916        C929   1.465       .  S
C917        C988   1.434       .  S
C918       O1052   1.263   1_545  A
C918        C989   1.434       .  S
O919        V927   1.899       .  S
O919        C929   1.264       .  A
O920        V927   1.899       .  S
O920        C930   1.264       .  A
O921        V927   1.900       .  S
O921        C931   1.263       .  A
O922        V927   1.900       .  S
O922        C932   1.263       .  A
O923        V928   1.900       .  S
O924        V928   1.900       .  S
O925        V928   1.899       .  S
O926        V928   1.899       .  S
C931        C976   1.434       .  S
C932        C969   1.434       .  S
O933       V1085   1.900       .  S
O933       C1087   1.263   1_556  A
O934        V941   1.900       .  S
O934        C944   1.263       .  A
O935        V941   1.899       .  S
O935        C945   1.264       .  A
O936       V1085   1.899   1_554  S
O936        C946   1.264       .  A
O937       V1086   1.899   1_554  S
O937        C946   1.264       .  A
O938        V942   1.899       .  S
O938        C945   1.264       .  A
O939       V1086   1.900       .  S
O939       C1088   1.263       .  A
O940        V942   1.900       .  S
O940        C943   1.263       .  A
V941       O1077   1.900       .  S
V941       O1080   1.899       .  S
V941        V942   2.090       .  T
V942       O1081   1.899       .  S
V942       O1083   1.900       .  S
C943       O1077   1.263       .  A
C943        C977   1.434       .  S
C944       O1083   1.263       .  A
C944        C984   1.434       .  S
C945        C958   1.465       .  S
C946        C957   1.465       .  S
O947        V955   1.899       .  S
O947        C957   1.264       .  A
O948        V955   1.899       .  S
O948        C958   1.264       .  A
O949        V955   1.900       .  S
O949        C959   1.263       .  A
O950        V955   1.900       .  S
O950        C960   1.263       .  A
O951        V956   1.900       .  S
O951        C960   1.263       .  A
O952        V956   1.900       .  S
O952        C959   1.263       .  A
O953        V956   1.899       .  S
O953        C958   1.264       .  A
O954        V956   1.899       .  S
O954        C957   1.264       .  A
V955        V956   2.090       .  T
C959        C961   1.434       .  S
C960        C965   1.434       .  S
C961        C962   1.205       .  T
C962        C963   1.411       .  S
C963        C964   1.205       .  T
C965        C966   1.205       .  T
C966        C967   1.411       .  S
C967        C968   1.205       .  T
C969        C970   1.205       .  T
C970        C971   1.411       .  S
C971        C972   1.205       .  T
C973        C974   1.205       .  T
C977       C1122   1.205       .  T
C978       C1121   1.205       .  T
C978       C1123   1.411       .  S
C979        C980   1.205       .  T
C979       C1122   1.411       .  S
C981       C1126   1.205       .  T
C982       C1125   1.205       .  T
C982       C1127   1.411       .  S
C983        C984   1.205       .  T
C983       C1126   1.411       .  S
C990       C1135   1.411       .  S
C991       C1136   1.205       .  T
C991       C1134   1.411       .  S
C992       C1135   1.205       .  T
C993        C994   1.205       .  T
C994        C995   1.411       .  S
C995        C996   1.205       .  T
C997        C998   1.205       .  T
C1005      C1150   1.205       .  T
C1006      C1149   1.205       .  T
C1007      C1152   1.205       .  T
C1008      C1151   1.205       .  T
O1009      V1017   1.899       .  S
O1011      V1017   1.900       .  S
O1012      C1022   1.263   1_554  A
O1014      V1018   1.900   1_554  S
O1015      V1018   1.899       .  S
O1015      C1020   1.264       .  A
O1016      C1019   1.264       .  A
C1019      C1036   1.465       .  S
C1020      C1035   1.465       .  S
C1021      C1145   1.434       .  S
C1022      C1152   1.434       .  S
O1023      V1031   1.900       .  S
O1024      V1031   1.900       .  S
O1025      V1031   1.899       .  S
O1026      V1031   1.899       .  S
O1027      V1032   1.899       .  S
O1027      C1036   1.264       .  A
O1028      V1032   1.899       .  S
O1028      C1035   1.264       .  A
O1029      V1032   1.900       .  S
O1029      C1034   1.263       .  A
O1030      V1032   1.900       .  S
O1030      C1033   1.263       .  A
C1033      C1144   1.434       .  S
C1034      C1140   1.434       .  S
C1037      C1124   1.451       .  S
C1037      C1038   1.410       .  A
C1037      C1042   1.410       .  A
C1038      C1129   1.451       .  S
C1039      C1149   1.451       .  S
C1040      C1125   1.451       .  S
C1041      C1136   1.451       .  S
C1042      C1148   1.451       .  S
C1043      C1108   1.451       .  S
C1043      C1044   1.410       .  A
C1043      C1048   1.410       .  A
C1044      C1116   1.451       .  S
C1045      C1141   1.451       .  S
C1046      C1112   1.451       .  S
C1047      C1117   1.451       .  S
C1048      C1137   1.451       .  S
O1049      V1057   1.899   1_556  S
O1051      V1057   1.900       .  S
O1051      C1061   1.263   1_565  A
O1054      V1058   1.900       .  S
O1055      V1058   1.899       .  S
O1055      C1060   1.264       .  A
O1056      C1059   1.264       .  A
C1059      C1074   1.465       .  S
C1060      C1073   1.465       .  S
C1061      C1132   1.434       .  S
C1062      C1133   1.434   1_554  S
O1063      V1071   1.899       .  S
O1063      C1073   1.264       .  A
O1064      V1071   1.899       .  S
O1064      C1074   1.264       .  A
O1065      V1071   1.900       .  S
O1065      C1075   1.263       .  A
O1066      V1071   1.900       .  S
O1066      C1076   1.263       .  A
O1067      V1072   1.900       .  S
O1068      V1072   1.900       .  S
O1069      V1072   1.899       .  S
O1070      V1072   1.899       .  S
C1075      C1120   1.434       .  S
C1076      C1113   1.434       .  S
O1078      V1085   1.900   1_554  S
O1078      C1088   1.263   1_554  A
O1079      V1085   1.899       .  S
O1079      C1089   1.264       .  A
O1080      C1090   1.264       .  A
O1081      C1090   1.264       .  A
O1082      V1086   1.899       .  S
O1082      C1089   1.264       .  A
O1084      V1086   1.900   1_554  S
O1084      C1087   1.263       .  A
V1085      V1086   2.090       .  T
C1087      C1121   1.434       .  S
C1088      C1128   1.434       .  S
C1089      C1102   1.465       .  S
C1090      C1101   1.465       .  S
O1091      V1099   1.899       .  S
O1091      C1101   1.264       .  A
O1092      V1099   1.899       .  S
O1092      C1102   1.264       .  A
O1093      V1099   1.900       .  S
O1093      C1103   1.263       .  A
O1094      V1099   1.900       .  S
O1094      C1104   1.263       .  A
O1095      V1100   1.900       .  S
O1095      C1104   1.263       .  A
O1096      V1100   1.900       .  S
O1096      C1103   1.263       .  A
O1097      V1100   1.899       .  S
O1097      C1102   1.264       .  A
O1098      V1100   1.899       .  S
O1098      C1101   1.264       .  A
V1099      V1100   2.090       .  T
C1103      C1105   1.434       .  S
C1104      C1109   1.434       .  S
C1105      C1106   1.205       .  T
C1106      C1107   1.411       .  S
C1107      C1108   1.205       .  T
C1109      C1110   1.205       .  T
C1110      C1111   1.411       .  S
C1111      C1112   1.205       .  T
C1113      C1114   1.205       .  T
C1114      C1115   1.411       .  S
C1115      C1116   1.205       .  T
C1117      C1118   1.205       .  T
C1123      C1124   1.205       .  T
C1127      C1128   1.205   1_554  T
C1137      C1138   1.205       .  T
C1138      C1139   1.411       .  S
C1139      C1140   1.205       .  T
C1141      C1142   1.205       .  T
