geometry optimzed in LAMMPS
_audit_creation_date              2020-12-01 
_audit_creation_method            'lammps2cif' 
_symmetry_space_group_name_H-M    'P1' 
_symmetry_Int_Tables_number       1 
_symmetry_cell_setting            triclinic 
loop_ 
_symmetry_equiv_pos_as_xyz 
  x,y,z 
_cell_length_a                    50.40701221 
_cell_length_b                    51.43934822258873 
_cell_length_c                    17.261786743060522 
_cell_angle_alpha                 88.76569294760233 
_cell_angle_beta                  90.56547233609393 
_cell_angle_gamma                 119.98196618805466 
loop_ 
_atom_site_label 
_atom_site_type_symbol 
_atom_site_fract_x 
_atom_site_fract_y 
_atom_site_fract_z 
_atom_site_charge 
C1          C  0.33633534  0.17115867  0.14877446     0.30000
C2          C  0.33744961  0.16708969  0.99025093     0.30000
C3          C  0.35039708  0.15268201  0.11786724    -0.06200
C4          C  0.30466531  0.15519643  0.10819814    -0.07000
C5          C  0.35341954  0.20107582  0.10313322    -0.06900
C6          C  0.35143872  0.15120345  0.03768095    -0.06200
C7          C  0.30539366  0.15425967  0.02736098    -0.07000
C8          C  0.35361466  0.19926483  0.02295812    -0.06900
C9          C  0.36413256  0.13354264  0.02149889    -0.32200
N10         N  0.37053513  0.12401846  0.08938884     0.14300
C11         C  0.36167869  0.13497618  0.14857623    -0.32300
H12         H  0.36346653  0.13046266  0.20937623     0.16200
C13         C  0.27548878  0.14144752  0.00192208    -0.31200
N14         N  0.25660673  0.13280565  0.06435787     0.13000
C15         C  0.27407798  0.14052920  0.12942985    -0.31200
C16         C  0.36764892  0.22858113  0.99434301    -0.31500
N17         N  0.37696755  0.24782311  0.05477540     0.13500
H18         H  0.37099185  0.23550675  0.93394865     0.16100
C19         C  0.36822385  0.23113036  0.12142727    -0.31500
H20         H  0.37229559  0.24019524  0.17915576     0.16100
H21         H  0.26506138  0.13612017  0.18783835     0.16100
H22         H  0.36812772  0.12775287  0.96459780     0.16200
H23         H  0.26784289  0.13824781  0.94229571     0.16100
C24         C  0.33527213  0.17011827  0.48985026     0.30000
C25         C  0.33566178  0.16774366  0.64944120     0.30000
C26         C  0.35236449  0.15499511  0.52759192    -0.06200
C27         C  0.34857522  0.20020340  0.53098206    -0.07000
C28         C  0.30367626  0.15167605  0.52920058    -0.06900
C29         C  0.35293105  0.15455482  0.60807335    -0.06200
C30         C  0.34885558  0.19947984  0.61146193    -0.07000
C31         C  0.30357898  0.15127520  0.61032531    -0.06900
C32         C  0.36861903  0.14019725  0.63168460    -0.32200
N33         N  0.37725440  0.13133399  0.56807779     0.14300
C34         C  0.36692286  0.13957282  0.50425341    -0.32300
H35         H  0.37012030  0.13495994  0.44527523     0.16200
C36         C  0.36046842  0.22903846  0.63406581    -0.31200
N37         N  0.36748185  0.24719967  0.56970380     0.13000
C38         C  0.35943984  0.22943004  0.50686144    -0.31200
C39         C  0.27311420  0.13522260  0.63287665    -0.31500
N40         N  0.25526110  0.12446830  0.56874922     0.13500
H41         H  0.26453803  0.13093755  0.69173365     0.16100
C42         C  0.27377916  0.13418680  0.50553841    -0.31500
H43         H  0.26591027  0.12894383  0.44635854     0.16100
H44         H  0.36148447  0.23726801  0.44737415     0.16100
H45         H  0.37336296  0.13637175  0.69084641     0.16200
H46         H  0.36412408  0.23680689  0.69306846     0.16100
C47         C  0.16253026  0.33250953  0.01250106     0.30000
C48         C  0.16414225  0.33096825  0.85364096     0.30000
C49         C  0.14766359  0.34847182  0.96825166    -0.06200
C50         C  0.19483461  0.34902776  0.97493376    -0.07000
C51         C  0.14709119  0.30143147  0.97634853    -0.06900
C52         C  0.14851142  0.34775027  0.88734934    -0.06200
C53         C  0.19569859  0.34829437  0.89412107    -0.07000
C54         C  0.14837903  0.30054600  0.89685795    -0.06900
C55         C  0.13856452  0.36683240  0.85887927    -0.32200
N56         N  0.13078355  0.37816391  0.91947402     0.14300
C57         C  0.13718313  0.36784782  0.98617945    -0.32300
H58         H  0.13488871  0.37446470  0.04372702     0.16200
C59         C  0.22602422  0.36646602  0.87233162    -0.31200
N60         N  0.24346612  0.37698491  0.93701681     0.13000
C61         C  0.22464928  0.36739359  0.99965124    -0.31200
C62         C  0.13322682  0.27059897  0.87697965    -0.31500
N63         N  0.12211544  0.25343947  0.94257160     0.13500
H64         H  0.13034357  0.26194991  0.81897591     0.16100
C65         C  0.13029055  0.27221043  0.00349510    -0.31500
H66         H  0.12439936  0.26509969  0.06333341     0.16100
H67         H  0.23228465  0.37279216  0.05899035     0.16100
H68         H  0.13759742  0.37251217  0.79859957     0.16200
H69         H  0.23496501  0.37124574  0.81386367     0.16100
C70         C  0.16208626  0.33055642  0.35445862     0.30000
C71         C  0.16228981  0.32847187  0.51353843     0.30000
C72         C  0.14430451  0.34380668  0.39487784    -0.06200
C73         C  0.14926087  0.29941808  0.39277265    -0.07000
C74         C  0.19385924  0.34929883  0.39356804    -0.06900
C75         C  0.14432013  0.34273920  0.47579121    -0.06200
C76         C  0.14951968  0.29834447  0.47271744    -0.07000
C77         C  0.19378420  0.34820598  0.47455721    -0.06900
C78         C  0.13053848  0.35871183  0.50005998    -0.32200
N79         N  0.12142897  0.36855941  0.43684600     0.14300
C80         C  0.13065328  0.36039566  0.37266359    -0.32300
H81         H  0.12746071  0.36599698  0.31386277     0.16200
C82         C  0.13739918  0.26856885  0.49494646    -0.31200
N83         N  0.12977119  0.25169205  0.43028194     0.13000
C84         C  0.13694242  0.27032811  0.36748447    -0.31200
C85         C  0.22320202  0.36801073  0.49864683    -0.31500
N86         N  0.24135322  0.38006526  0.43541737     0.13500
H87         H  0.23110497  0.37299173  0.55791502     0.16100
C88         C  0.22366512  0.36957091  0.37096328    -0.31500
H89         H  0.23201566  0.37590757  0.31218745     0.16100
H90         H  0.13351766  0.26321536  0.30785344     0.16100
H91         H  0.12741343  0.36297705  0.55947693     0.16200
H92         H  0.13424702  0.25978148  0.55372763     0.16100
O93         O  0.04271315  0.48940404  0.04277465    -0.88300
C94         C  0.04376701  0.04973953  0.88159203     0.87700
Mg95       Mg  0.01022112  0.44198484  0.03495330     1.58100
O96         O  0.01068078  0.05021942  0.05957536    -0.88100
O97         O  0.05410874  0.02621370  0.12246973    -0.75400
C98         C  0.37511658  0.43391649  0.96111984     0.92700
O99         O  0.02862897  0.47975539  0.85990011    -0.75200
O100        O  0.39027720  0.42120357  0.94270414    -0.82700
Mg101      Mg  0.06835765  0.01149110  0.93852784     1.58000
C102        C  0.42905976  0.05288587  0.06718068     0.92700
O103        O  0.11301907  0.04464336  0.00345000    -0.81000
H104        H  0.01418095  0.05479956  0.17455425    -0.06300
C105        C  0.45226557  0.50365311  0.88830397     0.87600
O106        O  0.47707073  0.44576525  0.11826606    -0.75500
O107        O  0.05064680  0.04200136  0.94345641    -0.88300
O108        O  0.45563481  0.06742069  0.03639176    -0.81100
C109        C  0.05326783  0.12395594  0.97271651     0.92800
C110        C  0.12540113  0.07112007  0.03040679     0.92600
Mg111      Mg  0.43257286  0.49083629  0.06002878     1.58000
O112        O  0.38793599  0.45902152  0.99550695    -0.81000
O113        O  0.47302768  0.02136526  0.13791925    -0.75200
O114        O  0.06766146  0.10975573  0.98500231    -0.81100
O115        O  0.08627751  0.47864816  0.93140443    -0.82800
O116        O  0.43125919  0.39095597  0.99908061    -0.81100
C117        C  0.49993366  0.04302569  0.12569499     0.87100
O118        O  0.44899317  0.45951195  0.05041968    -0.88300
O119        O  0.45762653  0.01338479  0.95497934    -0.88400
O120        O  0.44794733  0.47780819  0.87251958    -0.75400
Mg121      Mg  0.05884648  0.06629731  0.04922268     1.58000
O122        O  0.02412540  0.11041650  0.97177473    -0.82800
H123        H  0.04940676  0.48608518  0.15601806    -0.06500
O124        O  0.48982175  0.45160560  0.93597563    -0.88100
H125        H  0.48790463  0.44615913  0.82128425    -0.06300
H126        H  0.44265562  0.45019109  0.16401188    -0.06500
C127        C  0.00147678  0.45830733  0.87072504     0.87000
C128        C  0.04905253  0.99992885  0.10859927     0.87600
C129        C  0.45533853  0.45147344  0.11253713     0.87700
H130        H  0.45256679  0.01808178  0.84153985    -0.06500
O131        O  0.02254713  0.05629580  0.87758066    -0.75500
Mg132      Mg  0.44145681  0.43650648  0.94179770     1.58000
H133        H  0.05575220  0.05047242  0.82931547    -0.06500
C134        C  0.07296657  0.45016085  0.93891722     0.92700
O135        O  0.47479171  0.39168519  0.02943624    -0.82700
C136        C  0.44573395  0.37749484  0.02046621     0.92700
O137        O  0.10988489  0.08384315  0.04368484    -0.82700
Mg138      Mg  0.48981399  0.06035028  0.96326669     1.58200
O139        O  0.04540444  0.43474025  0.96410194    -0.81100
O140        O  0.41559675  0.02440038  0.07483003    -0.82800
O141        O  0.48863648  0.04132539  0.44984120    -0.88300
C142        C  0.04888740  0.04500432  0.61460420     0.87700
Mg143      Mg  0.44001706  0.01037117  0.45714541     1.58100
O144        O  0.05059488  0.01016494  0.44280522    -0.88100
O145        O  0.02656791  0.05206564  0.37023901    -0.75400
C146        C  0.42733458  0.37727760  0.54328535     0.92700
O147        O  0.47769066  0.02843002  0.63265942    -0.75200
O148        O  0.41269121  0.39135424  0.55113904    -0.82700
Mg149      Mg  0.01042347  0.06734816  0.55174094     1.58000
C150        C  0.05160889  0.42950801  0.45667066     0.92700
O151        O  0.04453893  0.11073981  0.48359875    -0.81000
H152        H  0.05550314  0.01128828  0.32782822    -0.06300
C153        C  0.49860414  0.45282205  0.61849186     0.87600
O154        O  0.44403757  0.47710674  0.37794710    -0.75500
O155        O  0.04192609  0.05088367  0.55038801    -0.88300
O156        O  0.06711203  0.45649972  0.47980343    -0.81100
C157        C  0.12455081  0.05238305  0.53312667     0.92800
C158        C  0.07146874  0.12299472  0.45464205     0.92600
Mg159      Mg  0.48849312  0.43351138  0.45232190     1.58000
O160        O  0.45567028  0.39116885  0.52489614    -0.81000
O161        O  0.02083433  0.47193429  0.37013719    -0.75200
O162        O  0.11150901  0.06671255  0.50798957    -0.81100
O163        O  0.47688750  0.08464959  0.55685624    -0.82800
O164        O  0.38603431  0.43477812  0.49867697    -0.81100
C165        C  0.04322444  0.49837724  0.37853831     0.87100
O166        O  0.45638824  0.44971770  0.45196769    -0.88300
O167        O  0.01007299  0.45963831  0.55297979    -0.88400
O168        O  0.47130067  0.44687833  0.63110039    -0.75400
Mg169      Mg  0.06715886  0.05762083  0.44450076     1.58000
O170        O  0.10995325  0.02393597  0.54257035    -0.82800
H171        H  0.48569404  0.04701654  0.33580537    -0.06500
O172        O  0.44772069  0.49005822  0.56071643    -0.88100
H173        H  0.44330735  0.48905335  0.67583051    -0.06300
H174        H  0.44840950  0.44252960  0.33852935    -0.06500
C175        C  0.45536444  0.00190802  0.62482217     0.87000
C176        C  0.99967185  0.04711972  0.38375600     0.87600
C177        C  0.44927395  0.45554654  0.38790675     0.87700
H178        H  0.01234158  0.45250560  0.66654126    -0.06500
O179        O  0.05411263  0.02345926  0.62485372    -0.75500
Mg180      Mg  0.43073685  0.44223701  0.55727798     1.58000
H181        H  0.04955057  0.05794029  0.66394187    -0.06500
C182        C  0.44797433  0.07188743  0.54853227     0.92700
O183        O  0.38826983  0.47721723  0.45966271    -0.82700
C184        C  0.37300446  0.44892646  0.47200050     0.92700
O185        O  0.08470110  0.10790826  0.44227366    -0.82700
Mg186      Mg  0.05861529  0.49052111  0.54599379     1.58200
O187        O  0.43250987  0.04517281  0.52314082    -0.81100
O188        O  0.02260215  0.41647000  0.44892355    -0.82800
C189        C  0.08620460  0.20135553  0.40167458    -0.01900
C190        C  0.11629075  0.21951326  0.42894356     0.07800
C191        C  0.13302795  0.20596735  0.45583946    -0.02000
C192        C  0.11891207  0.17442408  0.46240482    -0.02000
C193        C  0.08811566  0.15604546  0.43841686     0.08000
C194        C  0.07260620  0.16981584  0.40366705    -0.02200
Br195      Br  0.03374302  0.14564439  0.35310859    -0.00700
Br196      Br  0.06305856  0.21976026  0.36563191    -0.00800
Br197      Br  0.14185844  0.15715800  0.50793919    -0.00700
Br198      Br  0.17567109  0.23102094  0.48174342    -0.00700
C199        C  0.32437402  0.40115071  0.43557133    -0.01900
C200        C  0.33905019  0.43180733  0.45693353     0.07800
C201        C  0.32056547  0.44526303  0.46696304    -0.02000
C202        C  0.28854733  0.42848182  0.45548097    -0.02000
C203        C  0.27428767  0.39793982  0.43778877     0.08000
C204        C  0.29220105  0.38428704  0.42873360    -0.02200
Br205      Br  0.27209961  0.34175888  0.41128719    -0.00700
Br206      Br  0.34761515  0.38163417  0.41218057    -0.00800
Br207      Br  0.26344040  0.44679545  0.46483300    -0.00700
Br208      Br  0.33766788  0.48585488  0.50219466    -0.00700
C209        C  0.05716753  0.38390021  0.47935570    -0.01900
C210        C  0.06786735  0.41239361  0.44355399     0.07800
C211        C  0.09537303  0.42524756  0.40036153    -0.02000
C212        C  0.11336266  0.41118634  0.39903646    -0.02000
C213        C  0.10321515  0.38323411  0.43744346     0.08000
C214        C  0.07433409  0.36917839  0.47440450    -0.02200
Br215      Br  0.05699783  0.32874727  0.51421110    -0.00700
Br216      Br  0.01962956  0.36515468  0.53897105    -0.00800
Br217      Br  0.15248059  0.43096621  0.34713182    -0.00700
Br218      Br  0.10730747  0.46107518  0.33843240    -0.00700
C219        C  0.06181624  0.17255433  0.90981093    -0.01900
C220        C  0.07124005  0.15729880  0.96261711     0.07800
C221        C  0.09783010  0.17431269  0.00789873    -0.02000
C222        C  0.11535743  0.20567727  0.99764418    -0.02000
C223        C  0.10520228  0.22099293  0.94776925     0.08000
C224        C  0.07798255  0.20424224  0.90500298    -0.02200
Br225      Br  0.06141008  0.22457145  0.84393335    -0.00700
Br226      Br  0.02764864  0.15043582  0.84087384    -0.00800
Br227      Br  0.15421977  0.22739270  0.04984326    -0.00700
Br228      Br  0.10954791  0.15560307  0.08943621    -0.00700
C229        C  0.29472197  0.42242548  0.92997645    -0.01900
C230        C  0.27640441  0.39119415  0.93943577     0.07800
C231        C  0.29042007  0.37356639  0.94874137    -0.02000
C232        C  0.32259646  0.38706953  0.95226671    -0.02000
C233        C  0.34131154  0.41877394  0.94594058     0.08000
C234        C  0.32698257  0.43611459  0.93048138    -0.02200
Br235      Br  0.35109212  0.47808644  0.90162998    -0.00700
Br236      Br  0.27512560  0.44620165  0.91808672    -0.00800
Br237      Br  0.33996596  0.36123565  0.96658692    -0.00700
Br238      Br  0.26507165  0.33058130  0.95721362    -0.00700
C239        C  0.13392904  0.42659524  0.94813732    -0.01900
C240        C  0.11814663  0.39798893  0.91488943     0.07800
C241        C  0.08932942  0.38857860  0.88017391    -0.02000
C242        C  0.07599466  0.40704221  0.88159518    -0.02000
C243        C  0.09028307  0.43426579  0.92202890     0.08000
C244        C  0.12014190  0.44463874  0.95200296    -0.02200
Br245      Br  0.14240138  0.48311598  0.00056798    -0.00700
Br246      Br  0.17468904  0.44098079  0.98831425    -0.00800
Br247      Br  0.03929368  0.39621015  0.82275990    -0.00700
Br248      Br  0.06669296  0.34938705  0.83607955    -0.00700
C249        C  0.13501562  0.31856502  0.72469028    -0.01900
C250        C  0.16270421  0.32696313  0.76545107     0.07800
C251        C  0.18450193  0.32231152  0.72559263    -0.02000
C252        C  0.18420036  0.32180149  0.64371585    -0.02000
C253        C  0.16152536  0.32500478  0.60214666     0.08000
C254        C  0.13429092  0.31662939  0.64345078    -0.02200
Br255      Br  0.09503695  0.29407458  0.59288849    -0.00700
Br256      Br  0.09634181  0.30308506  0.77830223    -0.00800
Br257      Br  0.20958633  0.30898954  0.59195906    -0.00700
Br258      Br  0.20866422  0.30804881  0.78036612    -0.00700
C259        C  0.13405712  0.32393354  0.14248684    -0.01900
C260        C  0.16093542  0.32998936  0.10149874     0.07800
C261        C  0.18168844  0.32379158  0.14322453    -0.02000
C262        C  0.18222430  0.32406822  0.22476497    -0.02000
C263        C  0.16073726  0.32870607  0.26570267     0.08000
C264        C  0.13365620  0.32223487  0.22433111    -0.02200
Br265      Br  0.09407393  0.30214554  0.27572712    -0.00700
Br266      Br  0.09538069  0.31030511  0.08928210    -0.00800
Br267      Br  0.20748254  0.31067184  0.27796559    -0.00700
Br268      Br  0.20345784  0.30671018  0.09255467    -0.00700
C269        C  0.40174010  0.07355626  0.59626159    -0.01900
C270        C  0.43166244  0.08879219  0.56479869     0.07800
C271        C  0.44466459  0.11963891  0.54405689    -0.02000
C272        C  0.42681033  0.13370192  0.54746848    -0.02000
C273        C  0.39574727  0.11715310  0.56880872     0.08000
C274        C  0.38353415  0.08730531  0.59552926    -0.02200
Br275      Br  0.34158898  0.06517353  0.62961928    -0.00700
Br276      Br  0.38693718  0.03525444  0.64863000    -0.00800
Br277      Br  0.44517175  0.17615842  0.52682101    -0.00700
Br278      Br  0.48670176  0.14341214  0.51056320    -0.00700
C279        C  0.37172477  0.29562315  0.60907533    -0.01900
C280        C  0.38266456  0.27976804  0.56625033     0.07800
C281        C  0.40787508  0.29616513  0.51597636    -0.02000
C282        C  0.42041393  0.32728148  0.50445585    -0.02000
C283        C  0.41125837  0.34365465  0.55164588     0.08000
C284        C  0.38677949  0.32742486  0.60464509    -0.02200
Br285      Br  0.37388506  0.34818195  0.67321779    -0.00700
Br286      Br  0.33486845  0.27380346  0.66996240    -0.00800
Br287      Br  0.44770036  0.34616484  0.41694391    -0.00700
Br288      Br  0.42723546  0.27678891  0.46574892    -0.00700
C289        C  0.20954434  0.07790740  0.52618031    -0.01900
C290        C  0.22239466  0.10510203  0.56666911     0.07800
C291        C  0.20272237  0.11372427  0.60111382    -0.02000
C292        C  0.17064132  0.09523755  0.59520064    -0.02000
C293        C  0.15800035  0.06946902  0.54883207     0.08000
C294        C  0.17771580  0.06103136  0.51399115    -0.02200
Br295      Br  0.16174854  0.02794917  0.44366662    -0.00700
Br296      Br  0.23545052  0.06300932  0.48977336    -0.00800
Br297      Br  0.14402455  0.10444409  0.65372272    -0.00700
Br298      Br  0.21947605  0.15188349  0.65117601    -0.00700
C299        C  0.38058392  0.05631684  0.08723289    -0.01900
C300        C  0.41310992  0.06987612  0.08937005     0.07800
C301        C  0.43051816  0.10102428  0.10554621    -0.02000
C302        C  0.41625666  0.11866397  0.10768861    -0.02000
C303        C  0.38452187  0.10552043  0.09639480     0.08000
C304        C  0.36664309  0.07427748  0.08951295    -0.02200
Br305      Br  0.32280334  0.05660211  0.08202937    -0.00700
Br306      Br  0.35407000  0.01340968  0.08186615    -0.00800
Br307      Br  0.44014515  0.16125187  0.12356039    -0.00700
Br308      Br  0.47367712  0.11981972  0.12999260    -0.00700
C309        C  0.38320788  0.29808339  0.08096180    -0.01900
C310        C  0.39438994  0.28032621  0.04906203     0.07800
C311        C  0.42310293  0.29479350  0.01172190    -0.02000
C312        C  0.43915211  0.32616713  0.00011012    -0.02000
C313        C  0.42828195  0.34411972  0.03242546     0.08000
C314        C  0.40046411  0.32980825  0.07468883    -0.01000
Br315      Br  0.38666763  0.35352065  0.12795284    -0.00700
Br316      Br  0.34386075  0.27900040  0.13155991    -0.00800
Br317      Br  0.47490960  0.34381222  0.93456797    -0.00700
Br318      Br  0.44208716  0.27205483  0.98250015    -0.00700
C319        C  0.17732446  0.11740766  0.01389151    -0.01900
C320        C  0.15903034  0.08793657  0.04449736     0.07800
C321        C  0.17320899  0.07443735  0.08696187    -0.02000
C322        C  0.20540537  0.08908995  0.09303529    -0.02000
C323        C  0.22362729  0.11820230  0.06119655     0.08000
C324        C  0.20936151  0.13267600  0.02414621    -0.02200
Br325      Br  0.23387271  0.17394659  0.98988521    -0.00700
Br326      Br  0.15911436  0.13664709  0.95403697    -0.00800
Br327      Br  0.22465182  0.06861890  0.14131884    -0.00700
Br328      Br  0.14848498  0.03683793  0.14168989    -0.00700
C329        C  0.36586010  0.18381352  0.86002269    -0.01900
C330        C  0.33904833  0.16412742  0.90197898     0.07800
C331        C  0.31786865  0.13802491  0.86203164    -0.02000
C332        C  0.31784051  0.13831938  0.78001722    -0.02000
C333        C  0.33781507  0.16527305  0.73828299     0.08000
C334        C  0.36502408  0.18537365  0.77840936    -0.02200
Br335      Br  0.40339342  0.21007550  0.72414788    -0.00700
Br336      Br  0.40514560  0.20060837  0.91088496    -0.00800
Br337      Br  0.29777998  0.09996224  0.72884076    -0.00700
Br338      Br  0.29474443  0.09991531  0.91696477    -0.00700
C339        C  0.31543115  0.17941776  0.35861821    -0.01900
C340        C  0.33684546  0.17425621  0.40081978     0.07800
C341        C  0.36437422  0.18219080  0.36048443    -0.02000
C342        C  0.36469606  0.18225685  0.27887606    -0.02000
C343        C  0.33774987  0.17549190  0.23696264     0.08000
C344        C  0.31640579  0.18072725  0.27663213    -0.02200
Br345      Br  0.29587846  0.19907609  0.22242586    -0.00700
Br346      Br  0.29018913  0.19248938  0.40997831    -0.00800
Br347      Br  0.40384295  0.19844925  0.22651924    -0.00700
Br348      Br  0.40339145  0.20113102  0.41322588    -0.00700
C349        C  0.33633542  0.67115878  0.14877420     0.30000
C350        C  0.33744959  0.66708981  0.99025073     0.30000
C351        C  0.35039719  0.65268217  0.11786685    -0.06200
C352        C  0.30466537  0.65519653  0.10819804    -0.07000
C353        C  0.35341952  0.70107593  0.10313304    -0.06900
C354        C  0.35143874  0.65120358  0.03768058    -0.06200
C355        C  0.30539365  0.65425977  0.02736086    -0.07000
C356        C  0.35361464  0.69926496  0.02295792    -0.06900
C357        C  0.36413249  0.63354270  0.02149837    -0.32200
N358        N  0.37053505  0.62401849  0.08938832     0.14300
C359        C  0.36167869  0.63497626  0.14857573    -0.32300
H360        H  0.36346646  0.63046265  0.20937573     0.16200
C361        C  0.27548878  0.64144774  0.00192214    -0.31200
N362        N  0.25660676  0.63280588  0.06435803     0.13000
C363        C  0.27407808  0.64052938  0.12942984    -0.31200
C364        C  0.36764884  0.72858126  0.99434302    -0.31500
N365        N  0.37696739  0.74782323  0.05477542     0.13500
H366        H  0.37099183  0.73550701  0.93394825     0.16100
C367        C  0.36822376  0.73113043  0.12142723    -0.31500
H368        H  0.37229554  0.74019528  0.17915582     0.16100
H369        H  0.26506148  0.63612032  0.18783881     0.16100
H370        H  0.36812758  0.62775292  0.96459743     0.16200
H371        H  0.26784281  0.63824806  0.94229561     0.16100
C372        C  0.33527225  0.67011846  0.48985000     0.30000
C373        C  0.33566186  0.66774387  0.64944097     0.30000
C374        C  0.35236447  0.65499514  0.52759176    -0.06200
C375        C  0.34857543  0.70020360  0.53098176    -0.07000
C376        C  0.30367634  0.65167636  0.52920028    -0.06900
C377        C  0.35293103  0.65455488  0.60807320    -0.06200
C378        C  0.34885580  0.69948006  0.61146157    -0.07000
C379        C  0.30357905  0.65127551  0.61032507    -0.06900
C380        C  0.36861894  0.64019724  0.63168452    -0.32200
N381        N  0.37725422  0.63133383  0.56807782     0.14300
C382        C  0.36692270  0.63957271  0.50425338    -0.32300
H383        H  0.37012011  0.63495978  0.44527524     0.16200
C384        C  0.36046868  0.72903870  0.63406532    -0.31200
N385        N  0.36748209  0.74719990  0.56970347     0.13000
C386        C  0.35944009  0.72943032  0.50686065    -0.31200
C387        C  0.27311423  0.63522310  0.63287629    -0.31500
N388        N  0.25526118  0.62446885  0.56874865     0.13500
H389        H  0.26453800  0.63093810  0.69173312     0.16100
C390        C  0.27377930  0.63418726  0.50553836    -0.31500
H391        H  0.26591020  0.62894407  0.44635649     0.16100
H392        H  0.36148462  0.73726799  0.44737550     0.16100
H393        H  0.37336290  0.63637177  0.69084658     0.16200
H394        H  0.36412436  0.73680716  0.69306817     0.16100
C395        C  0.16253029  0.83250969  0.01250114     0.30000
C396        C  0.16414244  0.83096841  0.85364110     0.30000
C397        C  0.14766361  0.84847194  0.96825152    -0.06200
C398        C  0.19483470  0.84902789  0.97493405    -0.07000
C399        C  0.14709124  0.80143164  0.97634861    -0.06900
C400        C  0.14851155  0.84775039  0.88734920    -0.06200
C401        C  0.19569874  0.84829451  0.89412134    -0.07000
C402        C  0.14837919  0.80054618  0.89685806    -0.06900
C403        C  0.13856468  0.86683249  0.85887891    -0.32200
N404        N  0.13078362  0.87816401  0.91947347     0.14300
C405        C  0.13718313  0.86784791  0.98617890    -0.32300
H406        H  0.13488865  0.87446492  0.04372707     0.16200
C407        C  0.22602438  0.86646618  0.87233203    -0.31200
N408        N  0.24346623  0.87698518  0.93701728     0.13000
C409        C  0.22464933  0.86739380  0.99965134    -0.31200
C410        C  0.13322701  0.77059918  0.87697982    -0.31500
N411        N  0.12211547  0.75343963  0.94257154     0.13500
H412        H  0.13034383  0.76195008  0.81897546     0.16100
C413        C  0.13029053  0.77221059  0.00349530    -0.31500
H414        H  0.12439939  0.76510000  0.06333254     0.16100
H415        H  0.23228482  0.87279253  0.05899176     0.16100
H416        H  0.13759766  0.87251229  0.79859882     0.16200
H417        H  0.23496522  0.87124591  0.81386391     0.16100
C418        C  0.16208622  0.83055660  0.35445881     0.30000
C419        C  0.16228995  0.82847196  0.51353870     0.30000
C420        C  0.14430439  0.84380668  0.39487841    -0.06200
C421        C  0.14926104  0.79941828  0.39277275    -0.07000
C422        C  0.19385919  0.84929912  0.39356814    -0.06900
C423        C  0.14432013  0.84273917  0.47579171    -0.06200
C424        C  0.14951994  0.79834461  0.47271747    -0.07000
C425        C  0.19378428  0.84820624  0.47455721    -0.06900
C426        C  0.13053842  0.85871174  0.50006128    -0.32200
N427        N  0.12142875  0.86855925  0.43684706     0.14300
C428        C  0.13065296  0.86039553  0.37266459    -0.32300
H429        H  0.12746021  0.86599681  0.31386365     0.16200
C430        C  0.13739936  0.76856891  0.49494655    -0.31200
N431        N  0.12977126  0.75169223  0.43028165     0.13000
C432        C  0.13694246  0.77032830  0.36748405    -0.31200
C433        C  0.22320222  0.86801105  0.49864682    -0.31500
N434        N  0.24135321  0.88006565  0.43541682     0.13500
H435        H  0.23110508  0.87299181  0.55791304     0.16100
C436        C  0.22366504  0.86957127  0.37096267    -0.31500
H437        H  0.23201519  0.87590765  0.31218850     0.16100
H438        H  0.13351765  0.76321579  0.30785446     0.16100
H439        H  0.12741357  0.86297674  0.55947629     0.16200
H440        H  0.13424725  0.75978167  0.55372609     0.16100
O441        O  0.04271311  0.98940403  0.04277369    -0.88300
C442        C  0.04376682  0.54973942  0.88159280     0.87700
Mg443      Mg  0.01022116  0.94198477  0.03495220     1.58100
O444        O  0.01068094  0.55021965  0.05957547    -0.88100
O445        O  0.05410883  0.52621382  0.12247024    -0.75400
C446        C  0.37511668  0.93391668  0.96112075     0.92700
O447        O  0.02862891  0.97975543  0.85989950    -0.75200
O448        O  0.39027725  0.92120367  0.94270531    -0.82700
Mg449      Mg  0.06835766  0.51149111  0.93852849     1.58000
C450        C  0.42905956  0.55288575  0.06717997     0.92700
O451        O  0.11301911  0.54464338  0.00345057    -0.81000
H452        H  0.01418173  0.55480008  0.17455605    -0.06300
C453        C  0.45226568  0.00365314  0.88830485     0.87600
O454        O  0.47707082  0.94576531  0.11826670    -0.75500
O455        O  0.05064680  0.54200138  0.94345675    -0.88300
O456        O  0.45563464  0.56742052  0.03639122    -0.81100
C457        C  0.05326800  0.62395606  0.97271605     0.92800
C458        C  0.12540115  0.57112014  0.03040710     0.92600
Mg459      Mg  0.43257304  0.99083640  0.06002944     1.58000
O460        O  0.38793615  0.95902176  0.99550754    -0.81000
O461        O  0.47302749  0.52136514  0.13791880    -0.75200
O462        O  0.06766157  0.60975578  0.98500178    -0.81100
O463        O  0.08627746  0.97864818  0.93140378    -0.82800
O464        O  0.43125916  0.89095607  0.99908127    -0.81100
C465        C  0.49993352  0.54302563  0.12569471     0.87100
O466        O  0.44899329  0.95951206  0.05042033    -0.88300
O467        O  0.45762640  0.51338464  0.95497877    -0.88400
O468        O  0.44794752  0.97780836  0.87252021    -0.75400
Mg469      Mg  0.05884653  0.56629742  0.04922275     1.58000
O470        O  0.02412558  0.61041669  0.97177434    -0.82800
H471        H  0.04940680  0.98608521  0.15601649    -0.06500
O472        O  0.48982174  0.95160565  0.93597631    -0.88100
H473        H  0.48790445  0.94615887  0.82128465    -0.06300
H474        H  0.44265577  0.95019114  0.16401221    -0.06500
C475        C  0.00147670  0.95830736  0.87072415     0.87000
C476        C  0.04905255  0.49992896  0.10860002     0.87600
C477        C  0.45533860  0.95147350  0.11253780     0.87700
H478        H  0.45256672  0.51808125  0.84154055    -0.06500
O479        O  0.02254712  0.55629580  0.87758095    -0.75500
Mg480      Mg  0.44145685  0.93650663  0.94179857     1.58000
H481        H  0.05575242  0.55047214  0.82931375    -0.06500
C482        C  0.07296658  0.95016086  0.93891620     0.92700
O483        O  0.47479168  0.89168526  0.02943684    -0.82700
C484        C  0.44573392  0.87749492  0.02046681     0.92700
O485        O  0.10988489  0.58384320  0.04368490    -0.82700
Mg486      Mg  0.48981387  0.56035015  0.96326619     1.58200
O487        O  0.04540445  0.93474015  0.96410073    -0.81100
O488        O  0.41559645  0.52440025  0.07482899    -0.82800
O489        O  0.48863631  0.54132521  0.44984205    -0.88300
C490        C  0.04888751  0.54500443  0.61460258     0.87700
Mg491      Mg  0.44001686  0.51037092  0.45714616     1.58100
O492        O  0.05059510  0.51016519  0.44280384    -0.88100
O493        O  0.02656788  0.55206570  0.37023735    -0.75400
C494        C  0.42733459  0.87727783  0.54328434     0.92700
O495        O  0.47769047  0.52842983  0.63266034    -0.75200
O496        O  0.41269126  0.89135451  0.55113799    -0.82700
Mg497      Mg  0.01042357  0.56734833  0.55173978     1.58000
C498        C  0.05160866  0.92950775  0.45667224     0.92700
O499        O  0.04453900  0.61073996  0.48359800    -0.81000
H500        H  0.05550318  0.51128864  0.32782661    -0.06300
C501        C  0.49860443  0.95282234  0.61849140     0.87600
O502        O  0.44403775  0.97710707  0.37794627    -0.75500
O503        O  0.04192623  0.55088383  0.55038648    -0.88300
O504        O  0.06711187  0.95649951  0.47980465    -0.81100
C505        C  0.12455093  0.55238344  0.53312521     0.92800
C506        C  0.07146873  0.62299485  0.45464085     0.92600
Mg507      Mg  0.48849325  0.93351162  0.45232103     1.58000
O508        O  0.45567029  0.89116904  0.52489506    -0.81000
O509        O  0.02083432  0.97193398  0.37013850    -0.75200
O510        O  0.11150910  0.56671287  0.50798777    -0.81100
O511        O  0.47688724  0.58464933  0.55685674    -0.82800
O512        O  0.38603438  0.93477850  0.49867627    -0.81100
C513        C  0.04322439  0.99837699  0.37853967     0.87100
O514        O  0.45638830  0.94971792  0.45196678    -0.88300
O515        O  0.01007287  0.95963814  0.55298145    -0.88400
O516        O  0.47130081  0.94687862  0.63109928    -0.75400
Mg517      Mg  0.06715894  0.55762097  0.44449905     1.58000
O518        O  0.10995337  0.52393636  0.54256921    -0.82800
H519        H  0.48569436  0.54701634  0.33580745    -0.06500
O520        O  0.44772087  0.99005844  0.56071550    -0.88100
H521        H  0.44330759  0.98905356  0.67582946    -0.06300
H522        H  0.44840962  0.94253008  0.33852897    -0.06500
C523        C  0.45536424  0.50190782  0.62482305     0.87000
C524        C  0.99967188  0.54711998  0.38375447     0.87600
C525        C  0.44927406  0.95554680  0.38790567     0.87700
H526        H  0.01234118  0.95250542  0.66654207    -0.06500
O527        O  0.05411269  0.52345939  0.62485227    -0.75500
Mg528      Mg  0.43073694  0.94223728  0.55727715     1.58000
H529        H  0.04955069  0.55794058  0.66394086    -0.06500
C530        C  0.44797409  0.57188721  0.54853272     0.92700
O531        O  0.38826998  0.97721758  0.45966165    -0.82700
C532        C  0.37300455  0.94892682  0.47199947     0.92700
O533        O  0.08470101  0.60790835  0.44227192    -0.82700
Mg534      Mg  0.05861519  0.99052090  0.54599512     1.58200
O535        O  0.43250954  0.54517254  0.52314152    -0.81100
O536        O  0.02260195  0.91646975  0.44892535    -0.82800
C537        C  0.08620448  0.70135578  0.40167499    -0.01900
C538        C  0.11629078  0.71951345  0.42894317     0.07800
C539        C  0.13302812  0.70596751  0.45583778    -0.02000
C540        C  0.11891225  0.67442421  0.46240250    -0.02000
C541        C  0.08811567  0.65604563  0.43841575     0.08000
C542        C  0.07260608  0.66981609  0.40366714    -0.02200
Br543      Br  0.03374268  0.64564467  0.35310973    -0.00700
Br544      Br  0.06305825  0.71976053  0.36563369    -0.00800
Br545      Br  0.14185899  0.65715808  0.50793401    -0.00700
Br546      Br  0.17567141  0.73102101  0.48174106    -0.00700
C547        C  0.32437392  0.90115072  0.43557265    -0.01900
C548        C  0.33905025  0.93180767  0.45693219     0.07800
C549        C  0.32056564  0.94526373  0.46695853    -0.02000
C550        C  0.28854746  0.92848246  0.45547686    -0.02000
C551        C  0.27428768  0.89794016  0.43778777     0.08000
C552        C  0.29220093  0.88428709  0.42873519    -0.02200
Br553      Br  0.27209924  0.84175868  0.41129182    -0.00700
Br554      Br  0.34761475  0.88163352  0.41218520    -0.00800
Br555      Br  0.26344063  0.94679642  0.46482545    -0.00700
Br556      Br  0.33766812  0.98585633  0.50218480    -0.00700
C557        C  0.05716731  0.88389998  0.47935750    -0.01900
C558        C  0.06786706  0.91239333  0.44355552     0.07800
C559        C  0.09537268  0.92524727  0.40036288    -0.02000
C560        C  0.11336234  0.91118610  0.39903761    -0.02000
C561        C  0.10321490  0.88323392  0.43744482     0.08000
C562        C  0.07433393  0.86917824  0.47440621    -0.02200
Br563      Br  0.05699794  0.82874728  0.51421346    -0.00700
Br564      Br  0.01962941  0.86515450  0.53897333    -0.00800
Br565      Br  0.15248019  0.93096601  0.34713244    -0.00700
Br566      Br  0.10730699  0.96107479  0.33843353    -0.00700
C567        C  0.06181647  0.67255445  0.90981052    -0.01900
C568        C  0.07124024  0.65729893  0.96261680     0.07800
C569        C  0.09783024  0.67431283  0.00789852    -0.02000
C570        C  0.11535754  0.70567743  0.99764414    -0.02000
C571        C  0.10520236  0.72099309  0.94776924     0.08000
C572        C  0.07798273  0.70424235  0.90500260    -0.02200
Br573      Br  0.06141023  0.72457150  0.84393277    -0.00700
Br574      Br  0.02764896  0.65043588  0.84087323    -0.00800
Br575      Br  0.15421980  0.72739295  0.04984381    -0.00700
Br576      Br  0.10954806  0.65560312  0.08943569    -0.00700
C577        C  0.29472214  0.92242568  0.92997646    -0.01900
C578        C  0.27640454  0.89119441  0.93943649     0.07800
C579        C  0.29042016  0.87356663  0.94874261    -0.02000
C580        C  0.32259655  0.88706976  0.95226793    -0.02000
C581        C  0.34131166  0.91877413  0.94594131     0.08000
C582        C  0.32698274  0.93611478  0.93048144    -0.02200
Br583      Br  0.35109228  0.97808651  0.90162939    -0.00700
Br584      Br  0.27512575  0.94620174  0.91808499    -0.00800
Br585      Br  0.33996600  0.86123589  0.96658924    -0.00700
Br586      Br  0.26507171  0.83058156  0.95721536    -0.00700
C587        C  0.13392909  0.92659534  0.94813668    -0.01900
C588        C  0.11814672  0.89798903  0.91488871     0.07800
C589        C  0.08932955  0.88857871  0.88017294    -0.02000
C590        C  0.07599483  0.90704236  0.88159394    -0.02000
C591        C  0.09028317  0.93426590  0.92202775     0.08000
C592        C  0.12014194  0.94463882  0.95200213    -0.02200
Br593      Br  0.14240135  0.98311607  0.00056687    -0.00700
Br594      Br  0.17468910  0.94098105  0.98831367    -0.00800
Br595      Br  0.03929382  0.89621021  0.82275873    -0.00700
Br596      Br  0.06669311  0.84938714  0.83607842    -0.00700
C597        C  0.13501574  0.81856502  0.72469051    -0.01900
C598        C  0.16270437  0.82696325  0.76545125     0.07800
C599        C  0.18450218  0.82231180  0.72559274    -0.02000
C600        C  0.18420059  0.82180174  0.64371599    -0.02000
C601        C  0.16152547  0.82500483  0.60214686     0.08000
C602        C  0.13429097  0.81662925  0.64345105    -0.02200
Br603      Br  0.09503691  0.79407420  0.59288904    -0.00700
Br604      Br  0.09634194  0.80308510  0.77830231    -0.00800
Br605      Br  0.20958658  0.80898982  0.59195908    -0.00700
Br606      Br  0.20866460  0.80804929  0.78036614    -0.00700
C607        C  0.13405716  0.82393380  0.14248694    -0.01900
C608        C  0.16093544  0.82998957  0.10149884     0.07800
C609        C  0.18168847  0.82379184  0.14322472    -0.02000
C610        C  0.18222432  0.82406851  0.22476514    -0.02000
C611        C  0.16073723  0.82870629  0.26570283     0.08000
C612        C  0.13365617  0.82223503  0.22433122    -0.02200
Br613      Br  0.09407388  0.80214560  0.27572712    -0.00700
Br614      Br  0.09538082  0.81030559  0.08928211    -0.00800
Br615      Br  0.20748260  0.81067213  0.27796565    -0.00700
Br616      Br  0.20345778  0.80671024  0.09255519    -0.00700
C617        C  0.40174031  0.57355646  0.59626378    -0.01900
C618        C  0.43166229  0.58879206  0.56479886     0.07800
C619        C  0.44466423  0.61963857  0.54405513    -0.02000
C620        C  0.42681001  0.63370161  0.54746681    -0.02000
C621        C  0.39574711  0.61715297  0.56880880     0.08000
C622        C  0.38353431  0.58730544  0.59553144    -0.02200
Br623      Br  0.34158943  0.56517379  0.62962391    -0.00700
Br624      Br  0.38693787  0.53525511  0.64863410    -0.00800
Br625      Br  0.44517146  0.67615804  0.52681811    -0.00700
Br626      Br  0.48670106  0.64341134  0.51055855    -0.00700
C627        C  0.37172488  0.79562335  0.60907491    -0.01900
C628        C  0.38266479  0.77976828  0.56625000     0.07800
C629        C  0.40787528  0.79616539  0.51597598    -0.02000
C630        C  0.42041400  0.82728172  0.50445526    -0.02000
C631        C  0.41125837  0.84365487  0.55164508     0.08000
C632        C  0.38677949  0.82742506  0.60464426    -0.02200
Br633      Br  0.37388510  0.84818222  0.67321666    -0.00700
Br634      Br  0.33486862  0.77380355  0.66996236    -0.00800
Br635      Br  0.44770041  0.84616510  0.41694331    -0.00700
Br636      Br  0.42723570  0.77678921  0.46574839    -0.00700
C637        C  0.20954452  0.57790783  0.52618011    -0.01900
C638        C  0.22239476  0.60510257  0.56666844     0.07800
C639        C  0.20272244  0.61372493  0.60111229    -0.02000
C640        C  0.17064140  0.59523816  0.59519890    -0.02000
C641        C  0.15800048  0.56946952  0.54883082     0.08000
C642        C  0.17771601  0.56103183  0.51399059    -0.02200
Br643      Br  0.16174890  0.52794963  0.44366653    -0.00700
Br644      Br  0.23545075  0.56300961  0.48977399    -0.00800
Br645      Br  0.14402462  0.60444485  0.65371990    -0.00700
Br646      Br  0.21947613  0.65188421  0.65117425    -0.00700
C647        C  0.38058377  0.55631677  0.08723285    -0.01900
C648        C  0.41310977  0.56987606  0.08936942     0.07800
C649        C  0.43051806  0.60102427  0.10554516    -0.02000
C650        C  0.41625658  0.61866396  0.10768787    -0.02000
C651        C  0.38452178  0.60552043  0.09639433     0.08000
C652        C  0.36664297  0.57427746  0.08951288    -0.02200
Br653      Br  0.32280325  0.55660214  0.08202938    -0.00700
Br654      Br  0.35406983  0.51340955  0.08186674    -0.00800
Br655      Br  0.44014526  0.66125192  0.12355866    -0.00700
Br656      Br  0.47367707  0.61981979  0.12999086    -0.00700
C657        C  0.38320784  0.79808348  0.08096227    -0.01900
C658        C  0.39438982  0.78032628  0.04906230     0.07800
C659        C  0.42310277  0.79479357  0.01172206    -0.02000
C660        C  0.43915195  0.82616719  0.00011043    -0.02000
C661        C  0.42828189  0.84411981  0.03242598     0.08000
C662        C  0.40046409  0.82980833  0.07468945    -0.01000
Br663      Br  0.38666777  0.85352071  0.12795401    -0.00700
Br664      Br  0.34386067  0.77900045  0.13155996    -0.00800
Br665      Br  0.47490939  0.84381228  0.93456844    -0.00700
Br666      Br  0.44208692  0.77205488  0.98250014    -0.00700
C667        C  0.17732447  0.61740780  0.01389195    -0.01900
C668        C  0.15903037  0.58793667  0.04449757     0.07800
C669        C  0.17320905  0.57443748  0.08696204    -0.02000
C670        C  0.20540544  0.58909009  0.09303537    -0.02000
C671        C  0.22362734  0.61820251  0.06119692     0.08000
C672        C  0.20936152  0.63267619  0.02414672    -0.02200
Br673      Br  0.23387275  0.67394684  0.98988582    -0.00700
Br674      Br  0.15911440  0.63664735  0.95403809    -0.00800
Br675      Br  0.22465195  0.56861897  0.14131825    -0.00700
Br676      Br  0.14848504  0.53683819  0.14169048    -0.00700
C677        C  0.36586012  0.68381362  0.86002264    -0.01900
C678        C  0.33904832  0.66412756  0.90197885     0.07800
C679        C  0.31786855  0.63802515  0.86203140    -0.02000
C680        C  0.31784038  0.63831965  0.78001703    -0.02000
C681        C  0.33781509  0.66527325  0.73828282     0.08000
C682        C  0.36502411  0.68537375  0.77840930    -0.02200
Br683      Br  0.40339347  0.71007535  0.72414784    -0.00700
Br684      Br  0.40514563  0.70060863  0.91088497    -0.00800
Br685      Br  0.29777963  0.59996251  0.72884069    -0.00700
Br686      Br  0.29474445  0.59991555  0.91696429    -0.00700
C687        C  0.31543134  0.67941804  0.35861793    -0.01900
C688        C  0.33684560  0.67425641  0.40081950     0.07800
C689        C  0.36437433  0.68219087  0.36048419    -0.02000
C690        C  0.36469615  0.68225689  0.27887580    -0.02000
C691        C  0.33774995  0.67549199  0.23696235     0.08000
C692        C  0.31640590  0.68072741  0.27663183    -0.02200
Br693      Br  0.29587854  0.69907634  0.22242583    -0.00700
Br694      Br  0.29018950  0.69248988  0.40997824    -0.00800
Br695      Br  0.40384309  0.69844930  0.22651919    -0.00700
Br696      Br  0.40339156  0.70113106  0.41322583    -0.00700
C697        C  0.83633542  0.17115877  0.14877436     0.30000
C698        C  0.83744960  0.16708981  0.99025084     0.30000
C699        C  0.85039718  0.15268214  0.11786699    -0.06200
C700        C  0.80466536  0.15519657  0.10819812    -0.07000
C701        C  0.85341956  0.20107593  0.10313318    -0.06900
C702        C  0.85143872  0.15120354  0.03768079    -0.06200
C703        C  0.80539367  0.15425986  0.02736094    -0.07000
C704        C  0.85361470  0.19926495  0.02295800    -0.06900
C705        C  0.86413252  0.13354267  0.02149859    -0.32200
N706        N  0.87053508  0.12401847  0.08938843     0.14300
C707        C  0.86167874  0.13497621  0.14857643    -0.32300
H708        H  0.86346649  0.13046284  0.20937363     0.16200
C709        C  0.77548878  0.14144775  0.00192203    -0.31200
N710        N  0.75660676  0.13280587  0.06435799     0.13000
C711        C  0.77407806  0.14052936  0.12942980    -0.31200
C712        C  0.86764889  0.22858125  0.99434303    -0.31500
N713        N  0.87696746  0.24782321  0.05477551     0.13500
H714        H  0.87099183  0.23550699  0.93394826     0.16100
C715        C  0.86822375  0.23113039  0.12142699    -0.31500
H716        H  0.87229560  0.24019554  0.17915718     0.16100
H717        H  0.76506140  0.13612024  0.18783880     0.16100
H718        H  0.86812764  0.12775295  0.96459780     0.16200
H719        H  0.76784289  0.13824804  0.94229611     0.16100
C720        C  0.83527229  0.17011841  0.48985010     0.30000
C721        C  0.83566191  0.16774385  0.64944105     0.30000
C722        C  0.85236449  0.15499509  0.52759184    -0.06200
C723        C  0.84857557  0.20020357  0.53098183    -0.07000
C724        C  0.80367638  0.15167632  0.52920043    -0.06900
C725        C  0.85293105  0.15455485  0.60807322    -0.06200
C726        C  0.84885590  0.19948006  0.61146163    -0.07000
C727        C  0.80357909  0.15127551  0.61032518    -0.06900
C728        C  0.86861894  0.14019719  0.63168463    -0.32200
N729        N  0.87725421  0.13133378  0.56807802     0.14300
C730        C  0.86692277  0.13957264  0.50425318    -0.32300
H731        H  0.87012017  0.13495989  0.44527666     0.16200
C732        C  0.86046870  0.22903870  0.63406531    -0.31200
N733        N  0.86748218  0.24719989  0.56970338     0.13000
C734        C  0.85944022  0.22943028  0.50686065    -0.31200
C735        C  0.77311424  0.13522313  0.63287638    -0.31500
N736        N  0.75526118  0.12446891  0.56874885     0.13500
H737        H  0.76453801  0.13093814  0.69173340     0.16100
C738        C  0.77377928  0.13418726  0.50553834    -0.31500
H739        H  0.76591029  0.12894419  0.44635748     0.16100
H740        H  0.86148474  0.23726794  0.44737539     0.16100
H741        H  0.87336288  0.13637178  0.69084645     0.16200
H742        H  0.86412426  0.23680715  0.69306815     0.16100
C743        C  0.66253021  0.33250962  0.01250122     0.30000
C744        C  0.66414238  0.33096838  0.85364117     0.30000
C745        C  0.64766354  0.34847188  0.96825163    -0.06200
C746        C  0.69483460  0.34902783  0.97493420    -0.07000
C747        C  0.64709117  0.30143158  0.97634865    -0.06900
C748        C  0.64851150  0.34775038  0.88734932    -0.06200
C749        C  0.69569867  0.34829446  0.89412154    -0.07000
C750        C  0.64837913  0.30054614  0.89685806    -0.06900
C751        C  0.63856468  0.36683257  0.85887902    -0.32200
N752        N  0.63078358  0.37816401  0.91947382     0.14300
C753        C  0.63718306  0.36784784  0.98617916    -0.32300
H754        H  0.63488859  0.37446481  0.04372734     0.16200
C755        C  0.72602432  0.36646610  0.87233241    -0.31200
N756        N  0.74346613  0.37698501  0.93701761     0.13000
C757        C  0.72464925  0.36739372  0.99965200    -0.31200
C758        C  0.63322695  0.27059914  0.87697980    -0.31500
N759        N  0.62211541  0.25343958  0.94257162     0.13500
H760        H  0.63034376  0.26195002  0.81897547     0.16100
C761        C  0.63029049  0.27221057  0.00349502    -0.31500
H762        H  0.62439921  0.26509977  0.06333392     0.16100
H763        H  0.73228448  0.37279228  0.05899068     0.16100
H764        H  0.63759770  0.37251238  0.79859984     0.16200
H765        H  0.73496521  0.37124587  0.81386418     0.16100
C766        C  0.66208615  0.33055657  0.35445892     0.30000
C767        C  0.66228990  0.32847199  0.51353881     0.30000
C768        C  0.64430432  0.34380666  0.39487847    -0.06200
C769        C  0.64926097  0.29941827  0.39277295    -0.07000
C770        C  0.69385913  0.34929909  0.39356817    -0.06900
C771        C  0.64432007  0.34273918  0.47579181    -0.06200
C772        C  0.64951985  0.29834464  0.47271769    -0.07000
C773        C  0.69378422  0.34820626  0.47455724    -0.06900
C774        C  0.63053841  0.35871177  0.50006124    -0.32200
N775        N  0.62142881  0.36855937  0.43684711     0.14300
C776        C  0.63065296  0.36039554  0.37266470    -0.32300
H777        H  0.62746022  0.36599688  0.31386337     0.16200
C778        C  0.63739930  0.26856893  0.49494708    -0.31200
N779        N  0.62977122  0.25169226  0.43028196     0.13000
C780        C  0.63694242  0.27032832  0.36748471    -0.31200
C781        C  0.72320213  0.36801114  0.49864681    -0.31500
N782        N  0.74135315  0.38006563  0.43541681     0.13500
H783        H  0.73110497  0.37299199  0.55791307     0.16100
C784        C  0.72366498  0.36957122  0.37096266    -0.31500
H785        H  0.73201514  0.37590757  0.31218848     0.16100
H786        H  0.63351754  0.26321558  0.30785352     0.16100
H787        H  0.62741354  0.36297685  0.55947683     0.16200
H788        H  0.63424732  0.25978187  0.55372576     0.16100
O789        O  0.54271305  0.48940402  0.04277407    -0.88300
C790        C  0.54376684  0.04973948  0.88159281     0.87700
Mg791      Mg  0.51022107  0.44198482  0.03495262     1.58100
O792        O  0.51068094  0.05021960  0.05957568    -0.88100
O793        O  0.55410889  0.02621389  0.12247023    -0.75400
C794        C  0.87511661  0.43391662  0.96112061     0.92700
O795        O  0.52862901  0.47975549  0.85989966    -0.75200
O796        O  0.89027720  0.42120366  0.94270485    -0.82700
Mg797      Mg  0.56835763  0.01149109  0.93852848     1.58000
C798        C  0.92905962  0.05288569  0.06717999     0.92700
O799        O  0.61301909  0.04464333  0.00345048    -0.81000
H800        H  0.51418138  0.05479976  0.17455500    -0.06300
C801        C  0.95226570  0.50365324  0.88830459     0.87600
O802        O  0.97707074  0.44576525  0.11826666    -0.75500
O803        O  0.55064678  0.04200139  0.94345678    -0.88300
O804        O  0.95563471  0.06742049  0.03639128    -0.81100
C805        C  0.55326796  0.12395601  0.97271617     0.92800
C806        C  0.62540116  0.07112008  0.03040694     0.92600
Mg807      Mg  0.93257301  0.49083641  0.06002931     1.58000
O808        O  0.88793609  0.45902167  0.99550756    -0.81000
O809        O  0.97302747  0.02136508  0.13791879    -0.75200
O810        O  0.56766156  0.10975576  0.98500172    -0.81100
O811        O  0.58627750  0.47864826  0.93140395    -0.82800
O812        O  0.93125918  0.39095604  0.99908113    -0.81100
C813        C  0.99993348  0.04302558  0.12569470     0.87100
O814        O  0.94899331  0.45951210  0.05042022    -0.88300
O815        O  0.95762651  0.01338460  0.95497881    -0.88400
O816        O  0.94794748  0.47780835  0.87252019    -0.75400
Mg817      Mg  0.55884660  0.06629746  0.04922278     1.58000
O818        O  0.52412554  0.11041663  0.97177479    -0.82800
H819        H  0.54940681  0.48608525  0.15601705    -0.06500
O820        O  0.98982176  0.45160559  0.93597629    -0.88100
H821        H  0.98790474  0.44615909  0.82128560    -0.06300
H822        H  0.94265567  0.45019106  0.16401204    -0.06500
C823        C  0.50147683  0.45830747  0.87072460     0.87000
C824        C  0.54905253  0.99992892  0.10860021     0.87600
C825        C  0.95533855  0.45147349  0.11253772     0.87700
H826        H  0.95256685  0.01808146  0.84154013    -0.06500
O827        O  0.52254710  0.05629579  0.87758094    -0.75500
Mg828      Mg  0.94145684  0.43650660  0.94179832     1.58000
H829        H  0.55575252  0.05047230  0.82931386    -0.06500
C830        C  0.57296659  0.45016093  0.93891640     0.92700
O831        O  0.97479167  0.39168520  0.02943690    -0.82700
C832        C  0.94573390  0.37749489  0.02046684     0.92700
O833        O  0.60988493  0.08384319  0.04368478    -0.82700
Mg834      Mg  0.98981388  0.06035011  0.96326626     1.58200
O835        O  0.54540445  0.43474027  0.96410094    -0.81100
O836        O  0.91559654  0.02440019  0.07482901    -0.82800
O837        O  0.98863641  0.04132513  0.44984226    -0.88300
C838        C  0.54888754  0.04500449  0.61460310     0.87700
Mg839      Mg  0.94001696  0.01037091  0.45714666     1.58100
O840        O  0.55059508  0.01016517  0.44280395    -0.88100
O841        O  0.52656795  0.05206586  0.37023786    -0.75400
C842        C  0.92733459  0.37727783  0.54328417     0.92700
O843        O  0.97769064  0.02842996  0.63266047    -0.75200
O844        O  0.91269121  0.39135445  0.55113787    -0.82700
Mg845      Mg  0.51042358  0.06734830  0.55174017     1.58000
C846        C  0.55160866  0.42950780  0.45667181     0.92700
O847        O  0.54453912  0.11073995  0.48359810    -0.81000
H848        H  0.55550291  0.01128807  0.32782835    -0.06300
C849        C  0.99860434  0.45282228  0.61849081     0.87600
O850        O  0.94403772  0.47710703  0.37794579    -0.75500
O851        O  0.54192621  0.05088385  0.55038693    -0.88300
O852        O  0.56711181  0.45649949  0.47980459    -0.81100
C853        C  0.62455098  0.05238344  0.53312542     0.92800
C854        C  0.57146885  0.12299490  0.45464090     0.92600
Mg855      Mg  0.98849321  0.43351160  0.45232071     1.58000
O856        O  0.95567031  0.39116911  0.52489495    -0.81000
O857        O  0.52083417  0.47193407  0.37013834    -0.75200
O858        O  0.61150911  0.06671284  0.50798799    -0.81100
O859        O  0.97688733  0.08464947  0.55685684    -0.82800
O860        O  0.88603439  0.43477842  0.49867614    -0.81100
C861        C  0.54322437  0.49837706  0.37853925     0.87100
O862        O  0.95638825  0.44971788  0.45196632    -0.88300
O863        O  0.51007283  0.45963810  0.55298098    -0.88400
O864        O  0.97130084  0.44687856  0.63109917    -0.75400
Mg865      Mg  0.56715897  0.05762105  0.44449944     1.58000
O866        O  0.60995349  0.02393636  0.54256926    -0.82800
H867        H  0.98569403  0.04701631  0.33580649    -0.06500
O868        O  0.94772086  0.49005846  0.56071526    -0.88100
H869        H  0.94330754  0.48905358  0.67582935    -0.06300
H870        H  0.94840948  0.44252964  0.33852726    -0.06500
C871        C  0.95536436  0.00190798  0.62482349     0.87000
C872        C  0.49967189  0.04711996  0.38375491     0.87600
C873        C  0.94927399  0.45554680  0.38790555     0.87700
H874        H  0.51234157  0.45250535  0.66654300    -0.06500
O875        O  0.55411272  0.02345939  0.62485246    -0.75500
Mg876      Mg  0.93073693  0.44223724  0.55727686     1.58000
H877        H  0.54955080  0.05794043  0.66394063    -0.06500
C878        C  0.94797416  0.07188726  0.54853316     0.92700
O879        O  0.88827001  0.47721752  0.45966157    -0.82700
C880        C  0.87300456  0.44892676  0.47199947     0.92700
O881        O  0.58470120  0.10790847  0.44227204    -0.82700
Mg882      Mg  0.55861514  0.49052087  0.54599496     1.58200
O883        O  0.93250967  0.04517258  0.52314206    -0.81100
O884        O  0.52260194  0.41646977  0.44892469    -0.82800
C885        C  0.58620450  0.20135580  0.40167517    -0.01900
C886        C  0.61629079  0.21951348  0.42894342     0.07800
C887        C  0.63302817  0.20596755  0.45583792    -0.02000
C888        C  0.61891234  0.17442425  0.46240258    -0.02000
C889        C  0.58811576  0.15604568  0.43841583     0.08000
C890        C  0.57260610  0.16981610  0.40366737    -0.02200
Br891      Br  0.53374263  0.14564462  0.35311033    -0.00700
Br892      Br  0.56305818  0.21976048  0.36563425    -0.00800
Br893      Br  0.64185911  0.15715806  0.50793397    -0.00700
Br894      Br  0.67567136  0.23102098  0.48174164    -0.00700
C895        C  0.82437387  0.40115067  0.43557261    -0.01900
C896        C  0.83905023  0.43180763  0.45693224     0.07800
C897        C  0.82056561  0.44526369  0.46695860    -0.02000
C898        C  0.78854742  0.42848241  0.45547688    -0.02000
C899        C  0.77428762  0.39794011  0.43778779     0.08000
C900        C  0.79220087  0.38428703  0.42873515    -0.02200
Br901      Br  0.77209918  0.34175864  0.41129126    -0.00700
Br902      Br  0.84761468  0.38163348  0.41218465    -0.00800
Br903      Br  0.76344057  0.44679637  0.46482545    -0.00700
Br904      Br  0.83766806  0.48585625  0.50218534    -0.00700
C905        C  0.55716739  0.38390010  0.47935721    -0.01900
C906        C  0.56786711  0.41239342  0.44355513     0.07800
C907        C  0.59537272  0.42524739  0.40036248    -0.02000
C908        C  0.61336243  0.41118626  0.39903753    -0.02000
C909        C  0.60321502  0.38323407  0.43744487     0.08000
C910        C  0.57433401  0.36917835  0.47440616    -0.02200
Br911      Br  0.55699791  0.32874729  0.51421340    -0.00700
Br912      Br  0.51962945  0.36515465  0.53897278    -0.00800
Br913      Br  0.65248026  0.43096619  0.34713242    -0.00700
Br914      Br  0.60730702  0.46107494  0.33843300    -0.00700
C915        C  0.56181631  0.17255438  0.90981090    -0.01900
C916        C  0.57124019  0.15729886  0.96261687     0.07800
C917        C  0.59783027  0.17431276  0.00789841    -0.02000
C918        C  0.61535753  0.20567738  0.99764407    -0.02000
C919        C  0.60520228  0.22099303  0.94776935     0.08000
C920        C  0.57798255  0.20424229  0.90500312    -0.02200
Br921      Br  0.56141014  0.22457146  0.84393331    -0.00700
Br922      Br  0.52764871  0.15043583  0.84087382    -0.00800
Br923      Br  0.65421992  0.22739290  0.04984321    -0.00700
Br924      Br  0.60954818  0.15560308  0.08943560    -0.00700
C925        C  0.79472203  0.42242555  0.92997690    -0.01900
C926        C  0.77640445  0.39119426  0.93943679     0.07800
C927        C  0.79042006  0.37356646  0.94874256    -0.02000
C928        C  0.82259646  0.38706965  0.95226788    -0.02000
C929        C  0.84131156  0.41877403  0.94594132     0.08000
C930        C  0.82698263  0.43611466  0.93048159    -0.02200
Br931      Br  0.85109220  0.47808645  0.90162995    -0.00700
Br932      Br  0.77512568  0.44620167  0.91808615    -0.00800
Br933      Br  0.83996595  0.36123583  0.96658867    -0.00700
Br934      Br  0.76507156  0.33058132  0.95721478    -0.00700
C935        C  0.63392911  0.42659541  0.94813666    -0.01900
C936        C  0.61814669  0.39798904  0.91488896     0.07800
C937        C  0.58932951  0.38857871  0.88017325    -0.02000
C938        C  0.57599481  0.40704238  0.88159410    -0.02000
C939        C  0.59028317  0.43426596  0.92202793     0.08000
C940        C  0.62014198  0.44463891  0.95200221    -0.02200
Br941      Br  0.64240137  0.48311618  0.00056737    -0.00700
Br942      Br  0.67468906  0.44098102  0.98831370    -0.00800
Br943      Br  0.53929377  0.39621017  0.82275877    -0.00700
Br944      Br  0.56669305  0.34938708  0.83607900    -0.00700
C945        C  0.63501570  0.31856501  0.72469061    -0.01900
C946        C  0.66270432  0.32696321  0.76545133     0.07800
C947        C  0.68450212  0.32231175  0.72559280    -0.02000
C948        C  0.68420053  0.32180171  0.64371605    -0.02000
C949        C  0.66152543  0.32500485  0.60214696     0.08000
C950        C  0.63429097  0.31662934  0.64345115    -0.02200
Br951      Br  0.59503694  0.29407436  0.59288906    -0.00700
Br952      Br  0.59634188  0.30308506  0.77830234    -0.00800
Br953      Br  0.70958664  0.30898998  0.59195906    -0.00700
Br954      Br  0.70866454  0.30804924  0.78036614    -0.00700
C955        C  0.63405712  0.32393376  0.14248705    -0.01900
C956        C  0.66093539  0.32998951  0.10149893     0.07800
C957        C  0.68168842  0.32379177  0.14322484    -0.02000
C958        C  0.68222426  0.32406844  0.22476531    -0.02000
C959        C  0.66073718  0.32870625  0.26570292     0.08000
C960        C  0.63365615  0.32223502  0.22433127    -0.02200
Br961      Br  0.59407390  0.30214574  0.27572716    -0.00700
Br962      Br  0.59538075  0.31030553  0.08928257    -0.00800
Br963      Br  0.70748252  0.31067207  0.27796613    -0.00700
Br964      Br  0.70345772  0.30671019  0.09255525    -0.00700
C965        C  0.90174028  0.07355638  0.59626392    -0.01900
C966        C  0.93166233  0.08879207  0.56479928     0.07800
C967        C  0.94466432  0.11963860  0.54405572    -0.02000
C968        C  0.92681006  0.13370161  0.54746744    -0.02000
C969        C  0.89574713  0.11715292  0.56880919     0.08000
C970        C  0.88353426  0.08730535  0.59553158    -0.02200
Br971      Br  0.84158940  0.06517374  0.62962445    -0.00700
Br972      Br  0.88693800  0.03525507  0.64863463    -0.00800
Br973      Br  0.94517142  0.17615800  0.52681868    -0.00700
Br974      Br  0.98670125  0.14341148  0.51055918    -0.00700
C975        C  0.87172505  0.29562338  0.60907481    -0.01900
C976        C  0.88266484  0.27976827  0.56624969     0.07800
C977        C  0.90787527  0.29616537  0.51597557    -0.02000
C978        C  0.92041399  0.32728170  0.50445474    -0.02000
C979        C  0.91125845  0.34365487  0.55164476     0.08000
C980        C  0.88677966  0.32742507  0.60464417    -0.02200
Br981      Br  0.87388525  0.34818218  0.67321666    -0.00700
Br982      Br  0.83486885  0.27380370  0.66996238    -0.00800
Br983      Br  0.94770035  0.34616507  0.41694273    -0.00700
Br984      Br  0.92723567  0.27678915  0.46574832    -0.00700
C985        C  0.70954451  0.07790787  0.52618023    -0.01900
C986        C  0.72239473  0.10510258  0.56666861     0.07800
C987        C  0.70272241  0.11372486  0.60111273    -0.02000
C988        C  0.67064137  0.09523808  0.59519943    -0.02000
C989        C  0.65800049  0.06946953  0.54883101     0.08000
C990        C  0.67771600  0.06103184  0.51399065    -0.02200
Br991      Br  0.66174885  0.02794959  0.44366654    -0.00700
Br992      Br  0.73545081  0.06300975  0.48977450    -0.00800
Br993      Br  0.64402457  0.10444478  0.65372045    -0.00700
Br994      Br  0.71947607  0.15188418  0.65117428    -0.00700
C995        C  0.88058383  0.05631682  0.08723229    -0.01900
C996        C  0.91310985  0.06987604  0.08936943     0.07800
C997        C  0.93051813  0.10102422  0.10554562    -0.02000
C998        C  0.91625663  0.11866393  0.10768806    -0.02000
C999        C  0.88452182  0.10552042  0.09639432     0.08000
C1000       C  0.86664301  0.07427747  0.08951238    -0.02200
Br1001     Br  0.82280322  0.05660212  0.08202880    -0.00700
Br1002     Br  0.85406988  0.01340969  0.08186558    -0.00800
Br1003     Br  0.94014520  0.16125186  0.12355980    -0.00700
Br1004     Br  0.97367716  0.11981970  0.12999198    -0.00700
C1005       C  0.88320783  0.29808345  0.08096226    -0.01900
C1006       C  0.89438985  0.28032627  0.04906233     0.07800
C1007       C  0.92310282  0.29479358  0.01172212    -0.02000
C1008       C  0.93915202  0.32616721  0.00011057    -0.02000
C1009       C  0.92828188  0.34411978  0.03242603     0.08000
C1010       C  0.90046404  0.32980829  0.07468937    -0.01000
Br1011     Br  0.88666752  0.35352066  0.12795341    -0.00700
Br1012     Br  0.84386070  0.27900058  0.13155997    -0.00800
Br1013     Br  0.97490958  0.34381241  0.93456856    -0.00700
Br1014     Br  0.94208716  0.27205503  0.98250070    -0.00700
C1015       C  0.67732446  0.11740769  0.01389158    -0.01900
C1016       C  0.65903038  0.08793660  0.04449742     0.07800
C1017       C  0.67320908  0.07443740  0.08696196    -0.02000
C1018       C  0.70540548  0.08909002  0.09303525    -0.02000
C1019       C  0.72362734  0.11820245  0.06119673     0.08000
C1020       C  0.70936150  0.13267613  0.02414656    -0.02200
Br1021     Br  0.73387269  0.17394679  0.98988581    -0.00700
Br1022     Br  0.65911425  0.13664710  0.95403752    -0.00800
Br1023     Br  0.72465207  0.06861893  0.14131822    -0.00700
Br1024     Br  0.64848508  0.03683795  0.14168989    -0.00700
C1025       C  0.86586011  0.18381362  0.86002270    -0.01900
C1026       C  0.83904831  0.16412754  0.90197893     0.07800
C1027       C  0.81786863  0.13802506  0.86203157    -0.02000
C1028       C  0.81784048  0.13831956  0.78001715    -0.02000
C1029       C  0.83781515  0.16527320  0.73828291     0.08000
C1030       C  0.86502415  0.18537375  0.77840936    -0.02200
Br1031     Br  0.90339358  0.21007529  0.72414788    -0.00700
Br1032     Br  0.90514559  0.20060859  0.91088499    -0.00800
Br1033     Br  0.79777957  0.09996246  0.72884072    -0.00700
Br1034     Br  0.79474440  0.09991550  0.91696478    -0.00700
C1035       C  0.81543133  0.17941798  0.35861813    -0.01900
C1036       C  0.83684558  0.17425635  0.40081968     0.07800
C1037       C  0.86437430  0.18219083  0.36048435    -0.02000
C1038       C  0.86469612  0.18225685  0.27887599    -0.02000
C1039       C  0.83774994  0.17549194  0.23696255     0.08000
C1040       C  0.81640588  0.18072733  0.27663204    -0.02200
Br1041     Br  0.79587865  0.19907631  0.22242584    -0.00700
Br1042     Br  0.79018972  0.19249005  0.40997831    -0.00800
Br1043     Br  0.90384303  0.19844925  0.22651924    -0.00700
Br1044     Br  0.90339151  0.20113102  0.41322586    -0.00700
C1045       C  0.83633535  0.67115872  0.14877435     0.30000
C1046       C  0.83744948  0.66708967  0.99025080     0.30000
C1047       C  0.85039700  0.65268201  0.11786703    -0.06200
C1048       C  0.80466529  0.65519654  0.10819809    -0.07000
C1049       C  0.85341958  0.70107584  0.10313301    -0.06900
C1050       C  0.85143856  0.65120340  0.03768081    -0.06200
C1051       C  0.80539357  0.65425976  0.02736092    -0.07000
C1052       C  0.85361463  0.69926480  0.02295793    -0.06900
C1053       C  0.86413248  0.63354267  0.02149872    -0.32200
N1054       N  0.87053508  0.62401850  0.08938846     0.14300
C1055       C  0.86167869  0.63497620  0.14857640    -0.32300
H1056       H  0.86346653  0.63046289  0.20937403     0.16200
C1057       C  0.77548868  0.64144758  0.00192205    -0.31200
N1058       N  0.75660670  0.63280571  0.06435804     0.13000
C1059       C  0.77407798  0.64052927  0.12942993    -0.31200
C1060       C  0.86764888  0.72858109  0.99434252    -0.31500
N1061       N  0.87696755  0.74782308  0.05477506     0.13500
H1062       H  0.87099172  0.73550658  0.93394909     0.16100
C1063       C  0.86822397  0.73113038  0.12142701    -0.31500
H1064       H  0.87229580  0.74019528  0.17915525     0.16100
H1065       H  0.76506140  0.63612023  0.18783850     0.16100
H1066       H  0.86812773  0.62775297  0.96459728     0.16200
H1067       H  0.76784276  0.63824784  0.94229607     0.16100
C1068       C  0.83527211  0.67011833  0.48985002     0.30000
C1069       C  0.83566178  0.66774370  0.64944101     0.30000
C1070       C  0.85236447  0.65499518  0.52759160    -0.06200
C1071       C  0.84857523  0.70020346  0.53098193    -0.07000
C1072       C  0.80367623  0.65167609  0.52920035    -0.06900
C1073       C  0.85293107  0.65455488  0.60807304    -0.06200
C1074       C  0.84885556  0.69947988  0.61146179    -0.07000
C1075       C  0.80357898  0.65127524  0.61032514    -0.06900
C1076       C  0.86861901  0.64019731  0.63168383    -0.32200
N1077       N  0.87725434  0.63133398  0.56807748     0.14300
C1078       C  0.86692284  0.63957284  0.50425263    -0.32300
H1079       H  0.87012015  0.63496010  0.44527636     0.16200
C1080       C  0.86046830  0.72903847  0.63406580    -0.31200
N1081       N  0.86748182  0.74719972  0.56970394     0.13000
C1082       C  0.85943988  0.72943016  0.50686119    -0.31200
C1083       C  0.77311422  0.63522267  0.63287644    -0.31500
N1084       N  0.75526108  0.62446837  0.56874901     0.13500
H1085       H  0.76453801  0.63093759  0.69173372     0.16100
C1086       C  0.77377917  0.63418687  0.50553848    -0.31500
H1087       H  0.76591006  0.62894373  0.44635710     0.16100
H1088       H  0.86148449  0.73726800  0.44737523     0.16100
H1089       H  0.87336309  0.63637170  0.69084741     0.16200
H1090       H  0.86412383  0.73680684  0.69306849     0.16100
C1091       C  0.66253033  0.83250961  0.01250096     0.30000
C1092       C  0.66414228  0.83096827  0.85364089     0.30000
C1093       C  0.64766367  0.84847189  0.96825152    -0.06200
C1094       C  0.69483469  0.84902780  0.97493361    -0.07000
C1095       C  0.64709122  0.80143154  0.97634851    -0.06900
C1096       C  0.64851147  0.84775030  0.88734924    -0.06200
C1097       C  0.69569864  0.84829440  0.89412088    -0.07000
C1098       C  0.64837907  0.80054604  0.89685795    -0.06900
C1099       C  0.63856454  0.86683242  0.85887906    -0.32200
N1100       N  0.63078353  0.87816389  0.91947392     0.14300
C1101       C  0.63718317  0.86784785  0.98617930    -0.32300
H1102       H  0.63488876  0.87446474  0.04372689     0.16200
C1103       C  0.72602429  0.86646603  0.87233132    -0.31200
N1104       N  0.74346619  0.87698498  0.93701661     0.13000
C1105       C  0.72464933  0.86739365  0.99965068    -0.31200
C1106       C  0.63322695  0.77059904  0.87697995    -0.31500
N1107       N  0.62211550  0.75343951  0.94257152     0.13500
H1108       H  0.63034368  0.76194978  0.81897483     0.16100
C1109       C  0.63029055  0.77221046  0.00349541    -0.31500
H1110       H  0.62439949  0.76509992  0.06333201     0.16100
H1111       H  0.73228492  0.87279241  0.05899150     0.16100
H1112       H  0.63759744  0.87251213  0.79859986     0.16200
H1113       H  0.73496504  0.87124570  0.81386362     0.16100
C1114       C  0.66208634  0.83055647  0.35445853     0.30000
C1115       C  0.66228989  0.82847184  0.51353839     0.30000
C1116       C  0.64430459  0.84380670  0.39487786    -0.06200
C1117       C  0.64926103  0.79941813  0.39277255    -0.07000
C1118       C  0.69385930  0.84929890  0.39356806    -0.06900
C1119       C  0.64432023  0.84273920  0.47579124    -0.06200
C1120       C  0.64951982  0.79834449  0.47271722    -0.07000
C1121       C  0.69378428  0.84820602  0.47455719    -0.06900
C1122       C  0.63053855  0.85871175  0.50005989    -0.32200
N1123       N  0.62142899  0.86855938  0.43684627     0.14300
C1124       C  0.63065326  0.86039560  0.37266371    -0.32300
H1125       H  0.62746060  0.86599687  0.31386304     0.16200
C1126       C  0.63739916  0.76856876  0.49494661    -0.31200
N1127       N  0.62977120  0.75169208  0.43028159     0.13000
C1128       C  0.63694246  0.77032812  0.36748392    -0.31200
C1129       C  0.72320212  0.86801072  0.49864688    -0.31500
N1130       N  0.74135329  0.88006528  0.43541741     0.13500
H1131       H  0.73110507  0.87299160  0.55791470     0.16100
C1132       C  0.72366521  0.86957101  0.37096296    -0.31500
H1133       H  0.73201550  0.87590749  0.31218881     0.16100
H1134       H  0.63351773  0.76321562  0.30785459     0.16100
H1135       H  0.62741343  0.86297698  0.55947824     0.16200
H1136       H  0.63424702  0.75978170  0.55372516     0.16100
O1137       O  0.54271315  0.98940407  0.04277462    -0.88300
C1138       C  0.54376704  0.54973956  0.88159219     0.87700
Mg1139     Mg  0.51022113  0.94198486  0.03495321     1.58100
O1140       O  0.51068077  0.55021947  0.05957534    -0.88100
O1141       O  0.55410873  0.52621374  0.12246981    -0.75400
C1142       C  0.87511663  0.93391653  0.96111976     0.92700
O1143       O  0.52862894  0.97975540  0.85990013    -0.75200
O1144       O  0.89027726  0.92120361  0.94270414    -0.82700
Mg1145     Mg  0.56835765  0.51149114  0.93852819     1.58000
C1146       C  0.92905976  0.55288592  0.06718040     0.92700
O1147       O  0.61301907  0.54464342  0.00345012    -0.81000
H1148       H  0.51418099  0.55479955  0.17455412    -0.06300
C1149       C  0.95226566  0.00365307  0.88830410     0.87600
O1150       O  0.97707084  0.94576525  0.11826553    -0.75500
O1151       O  0.55064678  0.54200140  0.94345672    -0.88300
O1152       O  0.95563479  0.56742076  0.03639142    -0.81100
C1153       C  0.55326784  0.62395597  0.97271638     0.92800
C1154       C  0.62540110  0.57112013  0.03040685     0.92600
Mg1155     Mg  0.93257291  0.99083622  0.06002877     1.58000
O1156       O  0.88793602  0.95902154  0.99550692    -0.81000
O1157       O  0.97302768  0.52136531  0.13791887    -0.75200
O1158       O  0.56766144  0.60975576  0.98500235    -0.81100
O1159       O  0.58627746  0.97864814  0.93140440    -0.82800
O1160       O  0.93125920  0.89095588  0.99908057    -0.81100
C1161       C  0.99993358  0.54302566  0.12569440     0.87100
O1162       O  0.94899320  0.95951191  0.05041956    -0.88300
O1163       O  0.95762650  0.51338480  0.95497934    -0.88400
O1164       O  0.94794736  0.97780818  0.87251951    -0.75400
Mg1165     Mg  0.55884641  0.56629736  0.04922275     1.58000
O1166       O  0.52412541  0.61041652  0.97177433    -0.82800
H1167       H  0.54940666  0.98608548  0.15601717    -0.06500
O1168       O  0.98982169  0.95160546  0.93597547    -0.88100
H1169       H  0.98790474  0.94615932  0.82128496    -0.06300
H1170       H  0.94265541  0.95019085  0.16401271    -0.06500
C1171       C  0.50147681  0.95830743  0.87072528     0.87000
C1172       C  0.54905249  0.49992887  0.10859950     0.87600
C1173       C  0.95533865  0.95147337  0.11253659     0.87700
H1174       H  0.95256684  0.51808147  0.84154093    -0.06500
O1175       O  0.52254716  0.55629583  0.87758070    -0.75500
Mg1176     Mg  0.94145681  0.93650646  0.94179765     1.58000
H1177       H  0.55575220  0.55047242  0.82931606    -0.06500
C1178       C  0.57296652  0.95016080  0.93891680     0.92700
O1179       O  0.97479178  0.89168516  0.02943583    -0.82700
C1180       C  0.94573399  0.87749478  0.02046610     0.92700
O1181       O  0.60988482  0.58384318  0.04368484    -0.82700
Mg1182     Mg  0.98981396  0.56035033  0.96326649     1.58200
O1183       O  0.54540438  0.93474016  0.96410135    -0.81100
O1184       O  0.91559675  0.52440042  0.07482964    -0.82800
O1185       O  0.98863650  0.54132544  0.44984086    -0.88300
C1186       C  0.54888731  0.54500420  0.61460366     0.87700
Mg1187     Mg  0.94001706  0.51037117  0.45714501     1.58100
O1188       O  0.55059491  0.51016498  0.44280505    -0.88100
O1189       O  0.52656787  0.55206568  0.37023891    -0.75400
C1190       C  0.92733459  0.87727766  0.54328593     0.92700
O1191       O  0.97769067  0.52843005  0.63265918    -0.75200
O1192       O  0.91269123  0.89135430  0.55113961    -0.82700
Mg1193     Mg  0.51042340  0.56734811  0.55174086     1.58000
C1194       C  0.55160888  0.92950799  0.45667072     0.92700
O1195       O  0.54453893  0.61073976  0.48359872    -0.81000
H1196       H  0.55550287  0.51128806  0.32782897    -0.06300
C1197       C  0.99860426  0.95282210  0.61849273     0.87600
O1198       O  0.94403761  0.97710670  0.37794751    -0.75500
O1199       O  0.54192603  0.55088361  0.55038765    -0.88300
O1200       O  0.56711206  0.95649972  0.47980342    -0.81100
C1201       C  0.62455079  0.55238305  0.53312641     0.92800
C1202       C  0.57146873  0.62299473  0.45464190     0.92600
Mg1203     Mg  0.98849317  0.93351139  0.45232241     1.58000
O1204       O  0.95567030  0.89116892  0.52489679    -0.81000
O1205       O  0.52083434  0.97193423  0.37013728    -0.75200
O1206       O  0.61150897  0.56671250  0.50798894    -0.81100
O1207       O  0.97688735  0.58464953  0.55685572    -0.82800
O1208       O  0.88603442  0.93477818  0.49867732    -0.81100
C1209       C  0.54322458  0.99837727  0.37853805     0.87100
O1210       O  0.95638830  0.94971770  0.45196809    -0.88300
O1211       O  0.51007304  0.95963835  0.55297999    -0.88400
O1212       O  0.97130070  0.94687839  0.63110093    -0.75400
Mg1213     Mg  0.56715885  0.55762085  0.44450031     1.58000
O1214       O  0.60995324  0.52393597  0.54257038    -0.82800
H1215       H  0.98569411  0.54701660  0.33580536    -0.06500
O1216       O  0.94772070  0.99005826  0.56071704    -0.88100
H1217       H  0.94330746  0.98905360  0.67583126    -0.06300
H1218       H  0.94840950  0.94252940  0.33852928    -0.06500
C1219       C  0.95536443  0.50190805  0.62482189     0.87000
C1220       C  0.49967171  0.54711977  0.38375551     0.87600
C1221       C  0.94927398  0.95554653  0.38790727     0.87700
H1222       H  0.51234106  0.95250566  0.66653995    -0.06500
O1223       O  0.55411250  0.52345917  0.62485342    -0.75500
Mg1224     Mg  0.93073690  0.94223706  0.55727852     1.58000
H1225       H  0.54955051  0.55794046  0.66394231    -0.06500
C1226       C  0.94797419  0.57188734  0.54853187     0.92700
O1227       O  0.88826989  0.97721729  0.45966323    -0.82700
C1228       C  0.87300454  0.94892652  0.47200079     0.92700
O1229       O  0.58470110  0.60790831  0.44227318    -0.82700
Mg1230     Mg  0.55861539  0.99052114  0.54599386     1.58200
O1231       O  0.93250971  0.54517272  0.52314043    -0.81100
O1232       O  0.52260215  0.91647000  0.44892364    -0.82800
C1233       C  0.58620458  0.70135557  0.40167447    -0.01900
C1234       C  0.61629075  0.71951329  0.42894335     0.07800
C1235       C  0.63302792  0.70596736  0.45583941    -0.02000
C1236       C  0.61891202  0.67442410  0.46240484    -0.02000
C1237       C  0.58811562  0.65604549  0.43841687     0.08000
C1238       C  0.57260617  0.66981587  0.40366697    -0.02200
Br1239     Br  0.53374306  0.64564445  0.35310807    -0.00700
Br1240     Br  0.56305859  0.71976032  0.36563136    -0.00800
Br1241     Br  0.64185828  0.65715804  0.50793978    -0.00700
Br1242     Br  0.67567103  0.73102081  0.48174342    -0.00700
C1243       C  0.82437414  0.90115076  0.43557142    -0.01900
C1244       C  0.83905028  0.93180737  0.45693359     0.07800
C1245       C  0.82056551  0.94526306  0.46696304    -0.02000
C1246       C  0.78854737  0.92848184  0.45548093    -0.02000
C1247       C  0.77428774  0.89793983  0.43778884     0.08000
C1248       C  0.79220116  0.88428704  0.42873394    -0.02200
Br1249     Br  0.77209981  0.84175892  0.41128720    -0.00700
Br1250     Br  0.84761535  0.88163424  0.41218058    -0.00800
Br1251     Br  0.76344042  0.94679548  0.46483299    -0.00700
Br1252     Br  0.83766773  0.98585492  0.50219465    -0.00700
C1253       C  0.55716754  0.88390017  0.47935600    -0.01900
C1254       C  0.56786734  0.91239356  0.44355415     0.07800
C1255       C  0.59537303  0.92524753  0.40036177    -0.02000
C1256       C  0.61336266  0.91118631  0.39903662    -0.02000
C1257       C  0.60321518  0.88323407  0.43744369     0.08000
C1258       C  0.57433410  0.86917835  0.47440480    -0.02200
Br1259     Br  0.55699775  0.82874713  0.51421109    -0.00700
Br1260     Br  0.51962960  0.86515473  0.53897159    -0.00800
Br1261     Br  0.65248059  0.93096624  0.34713184    -0.00700
Br1262     Br  0.60730750  0.96107523  0.33843295    -0.00700
C1263       C  0.56181624  0.67255434  0.90981090    -0.01900
C1264       C  0.57124006  0.65729884  0.96261705     0.07800
C1265       C  0.59783008  0.67431274  0.00789875    -0.02000
C1266       C  0.61535740  0.70567732  0.99764444    -0.02000
C1267       C  0.60520230  0.72099297  0.94776936     0.08000
C1268       C  0.57798256  0.70424227  0.90500298    -0.02200
Br1269     Br  0.56141011  0.72457149  0.84393336    -0.00700
Br1270     Br  0.52764857  0.65043569  0.84087386    -0.00800
Br1271     Br  0.65421976  0.72739274  0.04984381    -0.00700
Br1272     Br  0.60954775  0.65560310  0.08943630    -0.00700
C1273       C  0.79472209  0.92242550  0.92997590    -0.01900
C1274       C  0.77640449  0.89119421  0.93943557     0.07800
C1275       C  0.79042012  0.87356643  0.94874143    -0.02000
C1276       C  0.82259651  0.88706957  0.95226668    -0.02000
C1277       C  0.84131161  0.91877397  0.94594021     0.08000
C1278       C  0.82698269  0.93611463  0.93048077    -0.02200
Br1279     Br  0.85109232  0.97808648  0.90162939    -0.00700
Br1280     Br  0.77512569  0.94620154  0.91808555    -0.00800
Br1281     Br  0.83996598  0.86123569  0.96658750    -0.00700
Br1282     Br  0.76507167  0.83058135  0.95721419    -0.00700
C1283       C  0.63392899  0.92659520  0.94813720    -0.01900
C1284       C  0.61814656  0.89798887  0.91488941     0.07800
C1285       C  0.58932935  0.88857852  0.88017384    -0.02000
C1286       C  0.57599466  0.90704221  0.88159466    -0.02000
C1287       C  0.59028307  0.93426580  0.92202837     0.08000
C1288       C  0.62014186  0.94463872  0.95200272    -0.02200
Br1289     Br  0.64240140  0.98311603  0.00056741    -0.00700
Br1290     Br  0.67468906  0.94098085  0.98831368    -0.00800
Br1291     Br  0.53929360  0.89621000  0.82275936    -0.00700
Br1292     Br  0.56669287  0.84938691  0.83607958    -0.00700
C1293       C  0.63501560  0.81856501  0.72469021    -0.01900
C1294       C  0.66270417  0.82696306  0.76545102     0.07800
C1295       C  0.68450187  0.82231141  0.72559262    -0.02000
C1296       C  0.68420037  0.82180145  0.64371585    -0.02000
C1297       C  0.66152536  0.82500468  0.60214661     0.08000
C1298       C  0.63429088  0.81662926  0.64345070    -0.02200
Br1299     Br  0.59503688  0.79407442  0.59288848    -0.00700
Br1300     Br  0.59634182  0.80308510  0.77830222    -0.00800
Br1301     Br  0.70958624  0.80898938  0.59195906    -0.00700
Br1302     Br  0.70866424  0.80804885  0.78036614    -0.00700
C1303       C  0.63405724  0.82393367  0.14248680    -0.01900
C1304       C  0.66093553  0.82998952  0.10149865     0.07800
C1305       C  0.68168849  0.82379167  0.14322441    -0.02000
C1306       C  0.68222433  0.82406828  0.22476484    -0.02000
C1307       C  0.66073731  0.82870613  0.26570258     0.08000
C1308       C  0.63365625  0.82223493  0.22433107    -0.02200
Br1309     Br  0.59407396  0.80214560  0.27572710    -0.00700
Br1310     Br  0.59538094  0.81030535  0.08928206    -0.00800
Br1311     Br  0.70748256  0.81067190  0.27796555    -0.00700
Br1312     Br  0.70345786  0.80671023  0.09255464    -0.00700
C1313       C  0.90174008  0.57355628  0.59626154    -0.01900
C1314       C  0.93166234  0.58879212  0.56479827     0.07800
C1315       C  0.94466451  0.61963883  0.54405632    -0.02000
C1316       C  0.92681026  0.63370184  0.54746806    -0.02000
C1317       C  0.89574723  0.61715308  0.56880838     0.08000
C1318       C  0.88353414  0.58730534  0.59552926    -0.02200
Br1319     Br  0.84158899  0.56517358  0.62961930    -0.00700
Br1320     Br  0.88693720  0.53525448  0.64863002    -0.00800
Br1321     Br  0.94517168  0.67615830  0.52682097    -0.00700
Br1322     Br  0.98670166  0.64341198  0.51056205    -0.00700
C1323       C  0.87172468  0.79562319  0.60907553    -0.01900
C1324       C  0.88266455  0.77976809  0.56625064     0.07800
C1325       C  0.90787504  0.79616519  0.51597668    -0.02000
C1326       C  0.92041389  0.82728154  0.50445630    -0.02000
C1327       C  0.91125834  0.84365470  0.55164634     0.08000
C1328       C  0.88677936  0.82742489  0.60464523    -0.02200
Br1329     Br  0.87388488  0.84818199  0.67321777    -0.00700
Br1330     Br  0.83486828  0.77380351  0.66996238    -0.00800
Br1331     Br  0.94770050  0.84616508  0.41694496    -0.00700
Br1332     Br  0.92723549  0.77678897  0.46574948    -0.00700
C1333       C  0.70954432  0.57790743  0.52618028    -0.01900
C1334       C  0.72239465  0.60510208  0.56666901     0.07800
C1335       C  0.70272235  0.61372433  0.60111349    -0.02000
C1336       C  0.67064130  0.59523758  0.59520044    -0.02000
C1337       C  0.65800032  0.56946905  0.54883191     0.08000
C1338       C  0.67771579  0.56103140  0.51399106    -0.02200
Br1339     Br  0.66174856  0.52794922  0.44366661    -0.00700
Br1340     Br  0.73545053  0.56300937  0.48977337    -0.00800
Br1341     Br  0.64402456  0.60444415  0.65372220    -0.00700
Br1342     Br  0.71947607  0.65188356  0.65117545    -0.00700
C1343       C  0.88058392  0.55631689  0.08723295    -0.01900
C1344       C  0.91310992  0.56987617  0.08936991     0.07800
C1345       C  0.93051816  0.60102434  0.10554582    -0.02000
C1346       C  0.91625664  0.61866401  0.10768830    -0.02000
C1347       C  0.88452186  0.60552048  0.09639447     0.08000
C1348       C  0.86664308  0.57427753  0.08951287    -0.02200
Br1349     Br  0.82280334  0.55660215  0.08202937    -0.00700
Br1350     Br  0.85407001  0.51340973  0.08186673    -0.00800
Br1351     Br  0.94014517  0.66125194  0.12355925    -0.00700
Br1352     Br  0.97367714  0.61981978  0.12999202    -0.00700
C1353       C  0.88320793  0.79808335  0.08096167    -0.01900
C1354       C  0.89438992  0.78032614  0.04906171     0.07800
C1355       C  0.92310286  0.79479343  0.01172137    -0.02000
C1356       C  0.93915202  0.82616705  0.00010970    -0.02000
C1357       C  0.92828199  0.84411966  0.03242545     0.08000
C1358       C  0.90046417  0.82980821  0.07468886    -0.01000
Br1359     Br  0.88666785  0.85352068  0.12795338    -0.00700
Br1360     Br  0.84386092  0.77900043  0.13155997    -0.00800
Br1361     Br  0.97490943  0.84381225  0.93456734    -0.00700
Br1362     Br  0.94208718  0.77205487  0.98249956    -0.00700
C1363       C  0.67732446  0.61740778  0.01389187    -0.01900
C1364       C  0.65903034  0.58793665  0.04449748     0.07800
C1365       C  0.67320901  0.57443740  0.08696186    -0.02000
C1366       C  0.70540538  0.58909002  0.09303538    -0.02000
C1367       C  0.72362729  0.61820243  0.06119692     0.08000
C1368       C  0.70936153  0.63267617  0.02414663    -0.02200
Br1369     Br  0.73387281  0.67394681  0.98988527    -0.00700
Br1370     Br  0.65911421  0.63664715  0.95403758    -0.00800
Br1371     Br  0.72465184  0.56861896  0.14131884    -0.00700
Br1372     Br  0.64848500  0.53683798  0.14168989    -0.00700
C1373       C  0.86586005  0.68381341  0.86002271    -0.01900
C1374       C  0.83904821  0.66412738  0.90197892     0.07800
C1375       C  0.81786851  0.63802491  0.86203155    -0.02000
C1376       C  0.81784046  0.63831939  0.78001713    -0.02000
C1377       C  0.83781505  0.66527306  0.73828291     0.08000
C1378       C  0.86502405  0.68537364  0.77840937    -0.02200
Br1379     Br  0.90339342  0.71007554  0.72414790    -0.00700
Br1380     Br  0.90514558  0.70060840  0.91088496    -0.00800
Br1381     Br  0.79777999  0.59996228  0.72884072    -0.00700
Br1382     Br  0.79474442  0.59991533  0.91696479    -0.00700
C1383       C  0.81543113  0.67941782  0.35861799    -0.01900
C1384       C  0.83684543  0.67425626  0.40081958     0.07800
C1385       C  0.86437421  0.68219086  0.36048432    -0.02000
C1386       C  0.86469609  0.68225689  0.27887595    -0.02000
C1387       C  0.83774990  0.67549197  0.23696248     0.08000
C1388       C  0.81640581  0.68072734  0.27663193    -0.02200
Br1389     Br  0.79587859  0.69907635  0.22242582    -0.00700
Br1390     Br  0.79018914  0.69248944  0.40997827    -0.00800
Br1391     Br  0.90384302  0.69844908  0.22651927    -0.00700
Br1392     Br  0.90339145  0.70113107  0.41322587    -0.00700
loop_ 
_geom_bond_atom_site_label_1 
_geom_bond_atom_site_label_2 
_geom_bond_distance 
_geom_bond_site_symmetry_2 
_ccdc_geom_bond_type 
C1            C3   1.547       .  S
C1            C5   1.539       .  S
C1            C4   1.551       .  S
C1          C343   1.539       .  S
C2            C6   1.540   1_556  S
C2            C8   1.551   1_556  S
C2            C7   1.547   1_556  S
C2          C330   1.541       .  S
C3           C11   1.387       .  A
C3            C6   1.391       .  A
C4           C15   1.385       .  A
C4            C7   1.399       .  A
C5           C19   1.382       .  A
C5            C8   1.390       .  A
C6            C9   1.381       .  A
C7           C13   1.381       .  A
C8           C16   1.388   1_554  A
C9           N10   1.358       .  A
C9           H22   1.082   1_554  S
N10          C11   1.359       .  A
N10         C303   1.443       .  S
C11          H12   1.083       .  S
C13          N14   1.357       .  A
C13          H23   1.082   1_554  S
N14          C15   1.358       .  A
N14         C323   1.443       .  S
C15          H21   1.082       .  S
C16          N17   1.363   1_556  A
C16          H18   1.081       .  S
N17          C19   1.358       .  A
N17         C310   1.450       .  S
C19          H20   1.083       .  S
C24          C26   1.552       .  S
C24          C28   1.543       .  S
C24          C27   1.533       .  S
C24         C340   1.544       .  S
C25          C29   1.533       .  S
C25          C31   1.557       .  S
C25          C30   1.554       .  S
C25         C333   1.543       .  S
C26          C34   1.390       .  A
C26          C29   1.389       .  A
C27          C38   1.374       .  A
C27          C30   1.389       .  A
C28          C42   1.377       .  A
C28          C31   1.400       .  A
C29          C32   1.379       .  A
C30          C36   1.392       .  A
C31          C39   1.386       .  A
C32          N33   1.354       .  A
C32          H45   1.083       .  S
N33          C34   1.362       .  A
N33         C273   1.442       .  S
C34          H35   1.082       .  S
C36          N37   1.366       .  A
C36          H46   1.082       .  S
N37          C38   1.357       .  A
N37         C280   1.453       .  S
C38          H44   1.082       .  S
C39          N40   1.360       .  A
C39          H41   1.082       .  S
N40          C42   1.357       .  A
N40         C290   1.445       .  S
C42          H43   1.082       .  S
C47          C49   1.548   1_554  S
C47          C51   1.530   1_554  S
C47          C50   1.552   1_554  S
C47         C260   1.538       .  S
C48          C52   1.554       .  S
C48          C54   1.535       .  S
C48          C53   1.549       .  S
C48         C250   1.537       .  S
C49          C57   1.382       .  A
C49          C52   1.399       .  A
C50          C61   1.385       .  A
C50          C53   1.398       .  A
C51          C65   1.379   1_556  A
C51          C54   1.377       .  A
C52          C55   1.387       .  A
C53          C59   1.386       .  A
C54          C62   1.384       .  A
C55          N56   1.360       .  A
C55          H68   1.082       .  S
N56          C57   1.360       .  A
N56         C240   1.448       .  S
C57          H58   1.083   1_556  S
C59          N60   1.358       .  A
C59          H69   1.082       .  S
N60          C61   1.357       .  A
N60         C230   1.442       .  S
C61          H67   1.083   1_556  S
C62          N63   1.360       .  A
C62          H64   1.083       .  S
N63          C65   1.359   1_556  A
N63         C223   1.447       .  S
C65          H66   1.082       .  S
C70          C72   1.549       .  S
C70          C74   1.554       .  S
C70          C73   1.533       .  S
C70         C263   1.536       .  S
C71          C75   1.554       .  S
C71          C77   1.544       .  S
C71          C76   1.534       .  S
C71         C253   1.535       .  S
C72          C80   1.384       .  A
C72          C75   1.397       .  A
C73          C84   1.382       .  A
C73          C76   1.380       .  A
C74          C88   1.387       .  A
C74          C77   1.398       .  A
C75          C78   1.387       .  A
C76          C82   1.382       .  A
C77          C85   1.381       .  A
C78          N79   1.363       .  A
C78          H91   1.083       .  S
N79          C80   1.358       .  A
N79         C213   1.451       .  S
C80          H81   1.082       .  S
C82          N83   1.359       .  A
C82          H92   1.082       .  S
N83          C84   1.357       .  A
N83         C190   1.442       .  S
C84          H90   1.083       .  S
C85          N86   1.355       .  A
C85          H87   1.083       .  S
N86          C88   1.360       .  A
N86         C203   1.441       .  S
C88          H89   1.082       .  S
O93         Mg95   2.160       .  S
O93        Mg449   2.166   1_554  S
O93         C476   1.238       .  S
C94         H133   1.080       .  S
C94         O107   1.238       .  S
C94         O131   1.273       .  A
Mg95        O820   2.158   1_454  S
Mg95        O139   2.346   1_554  S
Mg95        O831   2.298   1_455  S
Mg95        O802   2.298   1_455  S
O96        Mg121   2.146       .  S
O96        Mg834   2.149   1_454  S
O96         C813   1.236   1_455  S
O97         C128   1.272   1_545  A
O97        Mg121   2.304       .  S
C98         O100   1.275       .  A
C98         O112   1.276       .  A
C98         C233   1.501       .  S
O99         C127   1.270       .  A
O99        Mg449   2.300       .  S
O100       Mg132   2.290       .  S
Mg101       O107   2.162       .  S
Mg101       O441   2.166   1_546  S
Mg101       O103   2.330   1_556  S
Mg101       O447   2.300   1_545  S
Mg101       O463   2.285   1_545  S
C102        O140   1.275       .  A
C102        O108   1.277       .  A
C102        C300   1.510       .  S
O103        C110   1.278       .  A
H104        C813   1.081   1_455  S
C105        H478   1.080       .  S
C105        O467   1.238       .  S
C105        O120   1.271       .  A
O106        C129   1.270       .  A
O106       Mg791   2.298       .  S
O107       Mg121   2.152   1_556  S
O108       Mg138   2.320   1_554  S
C109        O122   1.273       .  A
C109        O114   1.275       .  A
C109        C220   1.493       .  S
C110        O137   1.271       .  A
C110        C320   1.489       .  S
Mg111       O118   2.158       .  S
Mg111       O467   2.172   1_554  S
Mg111       O112   2.309   1_554  S
Mg111       O461   2.295       .  S
Mg111       O488   2.297       .  S
O113        C117   1.269       .  A
O113       Mg459   2.295   1_545  S
O114       Mg121   2.310   1_556  S
O115        C134   1.275       .  A
O115       Mg449   2.285       .  S
O116        C136   1.279   1_556  A
O116       Mg132   2.332       .  S
C117        H800   1.081       .  S
C117        O792   1.236       .  S
O118       Mg132   2.166   1_554  S
O118        C129   1.237       .  S
O119       Mg138   2.141       .  S
O119       Mg459   2.172   1_546  S
O119        C453   1.238       .  S
O120       Mg132   2.292       .  S
Mg121       O137   2.263       .  S
O122       Mg834   2.281   1_455  S
H123        C476   1.079       .  S
O124       Mg132   2.160       .  S
O124       Mg791   2.158   1_556  S
O124        C823   1.236       .  S
H125        C823   1.082       .  S
H126        C129   1.081       .  S
C127        H821   1.082   1_455  S
C127        O820   1.236   1_455  S
C128        H471   1.079       .  S
C128        O441   1.238       .  S
H130        C453   1.080       .  S
O131       Mg834   2.315   1_455  S
C134        O139   1.282       .  A
C134        C243   1.498       .  S
O135        C136   1.278       .  A
O135       Mg791   2.298       .  S
C136        C313   1.498       .  S
Mg138       O792   2.149   1_556  S
Mg138       O818   2.281       .  S
Mg138       O827   2.315       .  S
O140       Mg459   2.297   1_545  S
O141       Mg143   2.157       .  S
O141       Mg845   2.165       .  S
O141        C872   1.238       .  S
C142        H181   1.082       .  S
C142        O155   1.236       .  S
C142        O179   1.269       .  A
Mg143       O520   2.179   1_545  S
Mg143       O187   2.328       .  S
Mg143       O531   2.295   1_545  S
Mg143       O502   2.300   1_545  S
O144       Mg169   2.150       .  S
O144       Mg534   2.162   1_545  S
O144        C513   1.238   1_545  S
O145        C176   1.271   1_455  A
O145       Mg169   2.300       .  S
C146        O148   1.276       .  A
C146        O160   1.277       .  A
C146        C283   1.503       .  S
O147        C175   1.271       .  A
O147       Mg845   2.303       .  S
O148       Mg180   2.306       .  S
Mg149       O155   2.141       .  S
Mg149       O837   2.165   1_455  S
Mg149       O151   2.327       .  S
Mg149       O843   2.303   1_455  S
Mg149       O859   2.273   1_455  S
C150        O188   1.275       .  A
C150        O156   1.277       .  A
C150        C210   1.494       .  S
O151        C158   1.278       .  A
H152        C513   1.079   1_545  S
C153        H874   1.080       .  S
C153        O863   1.237       .  S
C153        O168   1.272       .  A
O154        C177   1.270       .  A
O154       Mg491   2.300       .  S
O155       Mg169   2.158       .  S
O156       Mg186   2.323       .  S
C157        O170   1.275       .  A
C157        O162   1.276       .  A
C157        C293   1.486       .  S
C158        O185   1.273       .  A
C158        C193   1.494       .  S
Mg159       O166   2.159       .  S
Mg159       O863   2.147       .  S
Mg159       O160   2.318       .  S
Mg159       O857   2.298       .  S
Mg159       O884   2.289       .  S
O161        C165   1.271       .  A
O161       Mg855   2.298   1_455  S
O162       Mg169   2.312       .  S
O163        C182   1.273       .  A
O163       Mg845   2.273       .  S
O164        C184   1.277       .  A
O164       Mg180   2.314       .  S
C165        H500   1.079       .  S
C165        O492   1.238       .  S
O166       Mg180   2.155       .  S
O166        C177   1.236       .  S
O167       Mg186   2.154       .  S
O167       Mg855   2.147   1_455  S
O167        C849   1.237   1_455  S
O168       Mg180   2.310       .  S
Mg169       O185   2.277       .  S
O170       Mg534   2.282   1_545  S
H171        C872   1.080       .  S
O172       Mg180   2.165       .  S
O172       Mg491   2.179       .  S
O172        C523   1.237       .  S
H173        C523   1.080       .  S
H174        C177   1.082       .  S
C175        H521   1.080   1_545  S
C175        O520   1.237   1_545  S
C176        H867   1.080       .  S
C176        O837   1.238       .  S
H178        C849   1.080   1_455  S
O179       Mg534   2.295   1_545  S
C182        O187   1.279       .  A
C182        C270   1.497       .  S
O183        C184   1.275       .  A
O183       Mg491   2.295       .  S
C184        C200   1.506       .  S
Mg186       O492   2.162       .  S
Mg186       O518   2.282       .  S
Mg186       O527   2.295       .  S
O188       Mg855   2.289   1_455  S
C189        C190   1.408       .  A
C189        C194   1.411       .  A
C189       Br196   1.926       .  S
C190        C191   1.407       .  A
C191        C192   1.411       .  A
C191       Br198   1.928       .  S
C192        C193   1.419       .  A
C192       Br197   1.930       .  S
C193        C194   1.414       .  A
C194       Br195   1.930       .  S
C199        C200   1.423       .  A
C199        C204   1.411       .  A
C199       Br206   1.935       .  S
C200        C201   1.425       .  A
C201        C202   1.413       .  A
C201       Br208   1.928       .  S
C202        C203   1.402       .  A
C202       Br207   1.928       .  S
C203        C204   1.405       .  A
C204       Br205   1.926       .  S
C209        C210   1.414       .  A
C209        C214   1.410       .  A
C209       Br216   1.934       .  S
C210        C211   1.414       .  A
C211        C212   1.415       .  A
C211       Br218   1.929       .  S
C212        C213   1.414       .  A
C212       Br217   1.928       .  S
C213        C214   1.413       .  A
C214       Br215   1.922       .  S
C219        C220   1.416       .  A
C219        C224   1.413       .  A
C219       Br226   1.933       .  S
C220        C221   1.418   1_556  A
C221        C222   1.407   1_554  A
C221       Br228   1.936       .  S
C222        C223   1.410       .  A
C222       Br227   1.928   1_556  S
C223        C224   1.413       .  A
C224       Br225   1.926       .  S
C229        C230   1.403       .  A
C229        C234   1.413       .  A
C229       Br236   1.925       .  S
C230        C231   1.407       .  A
C231        C232   1.411       .  A
C231       Br238   1.926       .  S
C232        C233   1.421       .  A
C232       Br237   1.933       .  S
C233        C234   1.421       .  A
C234       Br235   1.931       .  S
C239        C240   1.409       .  A
C239        C244   1.413       .  A
C239       Br246   1.930       .  S
C240        C241   1.413       .  A
C241        C242   1.412       .  A
C241       Br248   1.922       .  S
C242        C243   1.411       .  A
C242       Br247   1.929       .  S
C243        C244   1.418       .  A
C244       Br245   1.927   1_556  S
C249        C250   1.422       .  A
C249        C254   1.407       .  A
C249       Br256   1.935       .  S
C250        C251   1.422       .  A
C251        C252   1.414       .  A
C251       Br258   1.938       .  S
C252        C253   1.420       .  A
C252       Br257   1.939       .  S
C253        C254   1.412       .  A
C254       Br255   1.933       .  S
C259        C260   1.422       .  A
C259        C264   1.413       .  A
C259       Br266   1.940       .  S
C260        C261   1.422       .  A
C261        C262   1.408       .  A
C261       Br268   1.938       .  S
C262        C263   1.418       .  A
C262       Br267   1.941       .  S
C263        C264   1.422       .  A
C264       Br265   1.942       .  S
C269        C270   1.414       .  A
C269        C274   1.411       .  A
C269       Br276   1.929       .  S
C270        C271   1.420       .  A
C271        C272   1.411       .  A
C271       Br278   1.930       .  S
C272        C273   1.406       .  A
C272       Br277   1.925       .  S
C273        C274   1.407       .  A
C274       Br275   1.924       .  S
C279        C280   1.414       .  A
C279        C284   1.419       .  A
C279       Br286   1.929       .  S
C280        C281   1.414       .  A
C281        C282   1.407       .  A
C281       Br288   1.930       .  S
C282        C283   1.418       .  A
C282       Br287   1.939       .  S
C283        C284   1.420       .  A
C284       Br285   1.931       .  S
C289        C290   1.412       .  A
C289        C294   1.408       .  A
C289       Br296   1.930       .  S
C290        C291   1.413       .  A
C291        C292   1.412       .  A
C291       Br298   1.927       .  S
C292        C293   1.412       .  A
C292       Br297   1.931       .  S
C293        C294   1.411       .  A
C294       Br295   1.928       .  S
C299        C300   1.426       .  A
C299        C304   1.414       .  A
C299       Br306   1.930       .  S
C300        C301   1.423       .  A
C301        C302   1.413       .  A
C301       Br308   1.935       .  S
C302        C303   1.404       .  A
C302       Br307   1.925       .  S
C303        C304   1.403       .  A
C304       Br305   1.928       .  S
C309        C310   1.413       .  A
C309        C314   1.417       .  A
C309       Br316   1.927       .  S
C310        C311   1.409       .  A
C311        C312   1.408       .  A
C311       Br318   1.921   1_554  S
C312        C313   1.414       .  A
C312       Br317   1.927   1_554  S
C313        C314   1.416       .  A
C314       Br315   1.930       .  S
C319        C320   1.416       .  A
C319        C324   1.410       .  A
C319       Br326   1.933   1_554  S
C320        C321   1.412       .  A
C321        C322   1.411       .  A
C321       Br328   1.929       .  S
C322        C323   1.410       .  A
C322       Br327   1.927       .  S
C323        C324   1.409       .  A
C324       Br325   1.929   1_554  S
C329        C330   1.413       .  A
C329        C334   1.411       .  A
C329       Br336   1.931       .  S
C330        C331   1.418       .  A
C331        C332   1.415       .  A
C331       Br338   1.939       .  S
C332        C333   1.425       .  A
C332       Br337   1.939       .  S
C333        C334   1.423       .  A
C334       Br335   1.939       .  S
C339        C340   1.424       .  A
C339        C344   1.416       .  A
C339       Br346   1.939       .  S
C340        C341   1.420       .  A
C341        C342   1.409       .  A
C341       Br348   1.932       .  S
C342        C343   1.417       .  A
C342       Br347   1.940       .  S
C343        C344   1.418       .  A
C344       Br345   1.938       .  S
C349        C351   1.547       .  S
C349        C353   1.539       .  S
C349        C352   1.551       .  S
C349        C691   1.539       .  S
C350        C354   1.540   1_556  S
C350        C356   1.551   1_556  S
C350        C355   1.547   1_556  S
C350        C678   1.541       .  S
C351        C359   1.387       .  A
C351        C354   1.391       .  A
C352        C363   1.385       .  A
C352        C355   1.399       .  A
C353        C367   1.382       .  A
C353        C356   1.390       .  A
C354        C357   1.381       .  A
C355        C361   1.381       .  A
C356        C364   1.388   1_554  A
C357        N358   1.358       .  A
C357        H370   1.082   1_554  S
N358        C359   1.359       .  A
N358        C651   1.443       .  S
C359        H360   1.083       .  S
C361        N362   1.357       .  A
C361        H371   1.082   1_554  S
N362        C363   1.358       .  A
N362        C671   1.443       .  S
C363        H369   1.082       .  S
C364        N365   1.363   1_556  A
C364        H366   1.081       .  S
N365        C367   1.358       .  A
N365        C658   1.450       .  S
C367        H368   1.083       .  S
C372        C374   1.552       .  S
C372        C376   1.543       .  S
C372        C375   1.533       .  S
C372        C688   1.544       .  S
C373        C377   1.533       .  S
C373        C379   1.557       .  S
C373        C378   1.554       .  S
C373        C681   1.543       .  S
C374        C382   1.390       .  A
C374        C377   1.389       .  A
C375        C386   1.374       .  A
C375        C378   1.389       .  A
C376        C390   1.377       .  A
C376        C379   1.400       .  A
C377        C380   1.379       .  A
C378        C384   1.392       .  A
C379        C387   1.386       .  A
C380        N381   1.354       .  A
C380        H393   1.083       .  S
N381        C382   1.362       .  A
N381        C621   1.442       .  S
C382        H383   1.082       .  S
C384        N385   1.366       .  A
C384        H394   1.082       .  S
N385        C386   1.357       .  A
N385        C628   1.453       .  S
C386        H392   1.082       .  S
C387        N388   1.360       .  A
C387        H389   1.082       .  S
N388        C390   1.357       .  A
N388        C638   1.445       .  S
C390        H391   1.082       .  S
C395        C397   1.548   1_554  S
C395        C399   1.530   1_554  S
C395        C398   1.552   1_554  S
C395        C608   1.538       .  S
C396        C400   1.554       .  S
C396        C402   1.535       .  S
C396        C401   1.549       .  S
C396        C598   1.537       .  S
C397        C405   1.382       .  A
C397        C400   1.399       .  A
C398        C409   1.385       .  A
C398        C401   1.398       .  A
C399        C413   1.379   1_556  A
C399        C402   1.377       .  A
C400        C403   1.387       .  A
C401        C407   1.386       .  A
C402        C410   1.384       .  A
C403        N404   1.360       .  A
C403        H416   1.082       .  S
N404        C405   1.360       .  A
N404        C588   1.448       .  S
C405        H406   1.083   1_556  S
C407        N408   1.358       .  A
C407        H417   1.082       .  S
N408        C409   1.357       .  A
N408        C578   1.442       .  S
C409        H415   1.083   1_556  S
C410        N411   1.360       .  A
C410        H412   1.083       .  S
N411        C413   1.359   1_556  A
N411        C571   1.447       .  S
C413        H414   1.082       .  S
C418        C420   1.549       .  S
C418        C422   1.554       .  S
C418        C421   1.533       .  S
C418        C611   1.536       .  S
C419        C423   1.554       .  S
C419        C425   1.544       .  S
C419        C424   1.534       .  S
C419        C601   1.535       .  S
C420        C428   1.384       .  A
C420        C423   1.397       .  A
C421        C432   1.382       .  A
C421        C424   1.380       .  A
C422        C436   1.387       .  A
C422        C425   1.398       .  A
C423        C426   1.387       .  A
C424        C430   1.382       .  A
C425        C433   1.381       .  A
C426        N427   1.363       .  A
C426        H439   1.083       .  S
N427        C428   1.358       .  A
N427        C561   1.451       .  S
C428        H429   1.082       .  S
C430        N431   1.359       .  A
C430        H440   1.082       .  S
N431        C432   1.357       .  A
N431        C538   1.442       .  S
C432        H438   1.083       .  S
C433        N434   1.355       .  A
C433        H435   1.083       .  S
N434        C436   1.360       .  A
N434        C551   1.441       .  S
C436        H437   1.082       .  S
O441       Mg443   2.160       .  S
C442        H481   1.080       .  S
C442        O455   1.238       .  S
C442        O479   1.273       .  A
Mg443      O1168   2.158   1_454  S
Mg443       O487   2.346   1_554  S
Mg443      O1179   2.298   1_455  S
Mg443      O1150   2.298   1_455  S
O444      Mg1182   2.149   1_454  S
O444       Mg469   2.146       .  S
O444       C1161   1.236   1_455  S
O445        C476   1.272       .  A
O445       Mg469   2.304       .  S
C446        O448   1.275       .  A
C446        O460   1.276       .  A
C446        C581   1.501       .  S
O447        C475   1.270       .  A
O448       Mg480   2.290       .  S
Mg449       O455   2.162       .  S
Mg449       O451   2.330   1_556  S
C450        O488   1.275       .  A
C450        O456   1.277       .  A
C450        C648   1.510       .  S
O451        C458   1.278       .  A
H452       C1161   1.081   1_455  S
C453        O468   1.271   1_545  A
O454        C477   1.270       .  A
O454      Mg1139   2.298       .  S
O455       Mg469   2.152   1_556  S
O456       Mg486   2.320   1_554  S
C457        O470   1.273       .  A
C457        O462   1.275       .  A
C457        C568   1.493       .  S
C458        O485   1.271       .  A
C458        C668   1.489       .  S
Mg459       O466   2.158       .  S
Mg459       O460   2.309   1_554  S
O461        C465   1.269       .  A
O462       Mg469   2.310   1_556  S
O463        C482   1.275       .  A
O464        C484   1.279   1_556  A
O464       Mg480   2.332       .  S
C465       H1148   1.081       .  S
C465       O1140   1.236       .  S
O466       Mg480   2.166   1_554  S
O466        C477   1.237       .  S
O467       Mg486   2.141       .  S
O468       Mg480   2.292       .  S
Mg469       O485   2.263       .  S
O470      Mg1182   2.281   1_455  S
O472      Mg1139   2.158   1_556  S
O472       Mg480   2.160       .  S
O472       C1171   1.236       .  S
H473       C1171   1.082       .  S
H474        C477   1.081       .  S
C475       H1169   1.082   1_455  S
C475       O1168   1.236   1_455  S
O479      Mg1182   2.315   1_455  S
C482        O487   1.282       .  A
C482        C591   1.498       .  S
O483        C484   1.278       .  A
O483      Mg1139   2.298       .  S
C484        C661   1.498       .  S
Mg486      O1140   2.149   1_556  S
Mg486      O1166   2.281       .  S
Mg486      O1175   2.315       .  S
O489       Mg491   2.157       .  S
O489      Mg1193   2.165       .  S
O489       C1220   1.238       .  S
C490        H529   1.082       .  S
C490        O503   1.236       .  S
C490        O527   1.269       .  A
Mg491       O535   2.328       .  S
O492       Mg517   2.150       .  S
O493        C524   1.271   1_455  A
O493       Mg517   2.300       .  S
C494        O496   1.276       .  A
C494        O508   1.277       .  A
C494        C631   1.503       .  S
O495        C523   1.271       .  A
O495      Mg1193   2.303       .  S
O496       Mg528   2.306       .  S
Mg497      O1185   2.165   1_455  S
Mg497       O503   2.141       .  S
Mg497      O1191   2.303   1_455  S
Mg497      O1207   2.273   1_455  S
Mg497       O499   2.327       .  S
C498        O536   1.275       .  A
C498        O504   1.277       .  A
C498        C558   1.494       .  S
O499        C506   1.278       .  A
C501       H1222   1.080       .  S
C501       O1211   1.237       .  S
C501        O516   1.272       .  A
O502        C525   1.270       .  A
O503       Mg517   2.158       .  S
O504       Mg534   2.323       .  S
C505        O518   1.275       .  A
C505        O510   1.276       .  A
C505        C641   1.486       .  S
C506        O533   1.273       .  A
C506        C541   1.494       .  S
Mg507       O514   2.159       .  S
Mg507      O1211   2.147       .  S
Mg507       O508   2.318       .  S
Mg507      O1205   2.298       .  S
Mg507      O1232   2.289       .  S
O509        C513   1.271       .  A
O509      Mg1203   2.298   1_455  S
O510       Mg517   2.312       .  S
O511        C530   1.273       .  A
O511      Mg1193   2.273       .  S
O512        C532   1.277       .  A
O512       Mg528   2.314       .  S
O514       Mg528   2.155       .  S
O514        C525   1.236       .  S
O515      Mg1203   2.147   1_455  S
O515       Mg534   2.154       .  S
O515       C1197   1.237   1_455  S
O516       Mg528   2.310       .  S
Mg517       O533   2.277       .  S
H519       C1220   1.080       .  S
O520       Mg528   2.165       .  S
H522        C525   1.082       .  S
C524       H1215   1.080       .  S
C524       O1185   1.238       .  S
H526       C1197   1.080   1_455  S
C530        O535   1.279       .  A
C530        C618   1.497       .  S
O531        C532   1.275       .  A
C532        C548   1.506       .  S
O536      Mg1203   2.289   1_455  S
C537        C538   1.408       .  A
C537        C542   1.411       .  A
C537       Br544   1.926       .  S
C538        C539   1.407       .  A
C539        C540   1.411       .  A
C539       Br546   1.928       .  S
C540        C541   1.419       .  A
C540       Br545   1.930       .  S
C541        C542   1.414       .  A
C542       Br543   1.930       .  S
C547        C548   1.423       .  A
C547        C552   1.411       .  A
C547       Br554   1.935       .  S
C548        C549   1.425       .  A
C549        C550   1.413       .  A
C549       Br556   1.928       .  S
C550        C551   1.402       .  A
C550       Br555   1.928       .  S
C551        C552   1.405       .  A
C552       Br553   1.926       .  S
C557        C558   1.414       .  A
C557        C562   1.410       .  A
C557       Br564   1.934       .  S
C558        C559   1.414       .  A
C559        C560   1.415       .  A
C559       Br566   1.929       .  S
C560        C561   1.414       .  A
C560       Br565   1.928       .  S
C561        C562   1.413       .  A
C562       Br563   1.922       .  S
C567        C568   1.416       .  A
C567        C572   1.413       .  A
C567       Br574   1.933       .  S
C568        C569   1.418   1_556  A
C569        C570   1.407   1_554  A
C569       Br576   1.936       .  S
C570        C571   1.410       .  A
C570       Br575   1.928   1_556  S
C571        C572   1.413       .  A
C572       Br573   1.926       .  S
C577        C578   1.403       .  A
C577        C582   1.413       .  A
C577       Br584   1.925       .  S
C578        C579   1.407       .  A
C579        C580   1.411       .  A
C579       Br586   1.926       .  S
C580        C581   1.421       .  A
C580       Br585   1.933       .  S
C581        C582   1.421       .  A
C582       Br583   1.931       .  S
C587        C588   1.409       .  A
C587        C592   1.413       .  A
C587       Br594   1.930       .  S
C588        C589   1.413       .  A
C589        C590   1.412       .  A
C589       Br596   1.922       .  S
C590        C591   1.411       .  A
C590       Br595   1.929       .  S
C591        C592   1.418       .  A
C592       Br593   1.927   1_556  S
C597        C598   1.422       .  A
C597        C602   1.407       .  A
C597       Br604   1.935       .  S
C598        C599   1.422       .  A
C599        C600   1.414       .  A
C599       Br606   1.938       .  S
C600        C601   1.420       .  A
C600       Br605   1.939       .  S
C601        C602   1.412       .  A
C602       Br603   1.933       .  S
C607        C608   1.422       .  A
C607        C612   1.413       .  A
C607       Br614   1.940       .  S
C608        C609   1.422       .  A
C609        C610   1.408       .  A
C609       Br616   1.938       .  S
C610        C611   1.418       .  A
C610       Br615   1.941       .  S
C611        C612   1.422       .  A
C612       Br613   1.942       .  S
C617        C618   1.414       .  A
C617        C622   1.411       .  A
C617       Br624   1.929       .  S
C618        C619   1.420       .  A
C619        C620   1.411       .  A
C619       Br626   1.930       .  S
C620        C621   1.406       .  A
C620       Br625   1.925       .  S
C621        C622   1.407       .  A
C622       Br623   1.924       .  S
C627        C628   1.414       .  A
C627        C632   1.419       .  A
C627       Br634   1.929       .  S
C628        C629   1.414       .  A
C629        C630   1.407       .  A
C629       Br636   1.930       .  S
C630        C631   1.418       .  A
C630       Br635   1.939       .  S
C631        C632   1.420       .  A
C632       Br633   1.931       .  S
C637        C638   1.412       .  A
C637        C642   1.408       .  A
C637       Br644   1.930       .  S
C638        C639   1.413       .  A
C639        C640   1.412       .  A
C639       Br646   1.927       .  S
C640        C641   1.412       .  A
C640       Br645   1.931       .  S
C641        C642   1.411       .  A
C642       Br643   1.928       .  S
C647        C648   1.426       .  A
C647        C652   1.414       .  A
C647       Br654   1.930       .  S
C648        C649   1.423       .  A
C649        C650   1.413       .  A
C649       Br656   1.935       .  S
C650        C651   1.404       .  A
C650       Br655   1.925       .  S
C651        C652   1.403       .  A
C652       Br653   1.928       .  S
C657        C658   1.413       .  A
C657        C662   1.417       .  A
C657       Br664   1.927       .  S
C658        C659   1.409       .  A
C659        C660   1.408       .  A
C659       Br666   1.921   1_554  S
C660        C661   1.414       .  A
C660       Br665   1.927   1_554  S
C661        C662   1.416       .  A
C662       Br663   1.930       .  S
C667        C668   1.416       .  A
C667        C672   1.410       .  A
C667       Br674   1.933   1_554  S
C668        C669   1.412       .  A
C669        C670   1.411       .  A
C669       Br676   1.929       .  S
C670        C671   1.410       .  A
C670       Br675   1.927       .  S
C671        C672   1.409       .  A
C672       Br673   1.929   1_554  S
C677        C678   1.413       .  A
C677        C682   1.411       .  A
C677       Br684   1.931       .  S
C678        C679   1.418       .  A
C679        C680   1.415       .  A
C679       Br686   1.939       .  S
C680        C681   1.425       .  A
C680       Br685   1.939       .  S
C681        C682   1.423       .  A
C682       Br683   1.939       .  S
C687        C688   1.424       .  A
C687        C692   1.416       .  A
C687       Br694   1.939       .  S
C688        C689   1.420       .  A
C689        C690   1.409       .  A
C689       Br696   1.932       .  S
C690        C691   1.417       .  A
C690       Br695   1.940       .  S
C691        C692   1.418       .  A
C692       Br693   1.938       .  S
C697        C699   1.547       .  S
C697        C701   1.539       .  S
C697        C700   1.551       .  S
C697       C1039   1.539       .  S
C698        C702   1.540   1_556  S
C698        C704   1.551   1_556  S
C698        C703   1.547   1_556  S
C698       C1026   1.541       .  S
C699        C707   1.387       .  A
C699        C702   1.391       .  A
C700        C711   1.385       .  A
C700        C703   1.399       .  A
C701        C715   1.382       .  A
C701        C704   1.390       .  A
C702        C705   1.381       .  A
C703        C709   1.381       .  A
C704        C712   1.388   1_554  A
C705        N706   1.358       .  A
C705        H718   1.082   1_554  S
N706        C707   1.359       .  A
N706        C999   1.443       .  S
C707        H708   1.083       .  S
C709        N710   1.357       .  A
C709        H719   1.082   1_554  S
N710        C711   1.358       .  A
N710       C1019   1.443       .  S
C711        H717   1.082       .  S
C712        N713   1.363   1_556  A
C712        H714   1.081       .  S
N713        C715   1.358       .  A
N713       C1006   1.450       .  S
C715        H716   1.083       .  S
C720        C722   1.552       .  S
C720        C724   1.543       .  S
C720        C723   1.533       .  S
C720       C1036   1.544       .  S
C721        C725   1.533       .  S
C721        C727   1.557       .  S
C721        C726   1.554       .  S
C721       C1029   1.543       .  S
C722        C730   1.390       .  A
C722        C725   1.389       .  A
C723        C734   1.374       .  A
C723        C726   1.389       .  A
C724        C738   1.377       .  A
C724        C727   1.400       .  A
C725        C728   1.379       .  A
C726        C732   1.392       .  A
C727        C735   1.386       .  A
C728        N729   1.354       .  A
C728        H741   1.083       .  S
N729        C730   1.362       .  A
N729        C969   1.442       .  S
C730        H731   1.082       .  S
C732        N733   1.366       .  A
C732        H742   1.082       .  S
N733        C734   1.357       .  A
N733        C976   1.453       .  S
C734        H740   1.082       .  S
C735        N736   1.360       .  A
C735        H737   1.082       .  S
N736        C738   1.357       .  A
N736        C986   1.445       .  S
C738        H739   1.082       .  S
C743        C745   1.548   1_554  S
C743        C747   1.530   1_554  S
C743        C746   1.552   1_554  S
C743        C956   1.538       .  S
C744        C748   1.554       .  S
C744        C750   1.535       .  S
C744        C749   1.549       .  S
C744        C946   1.537       .  S
C745        C753   1.382       .  A
C745        C748   1.399       .  A
C746        C757   1.385       .  A
C746        C749   1.398       .  A
C747        C761   1.379   1_556  A
C747        C750   1.377       .  A
C748        C751   1.387       .  A
C749        C755   1.386       .  A
C750        C758   1.384       .  A
C751        N752   1.360       .  A
C751        H764   1.082       .  S
N752        C753   1.360       .  A
N752        C936   1.448       .  S
C753        H754   1.083   1_556  S
C755        N756   1.358       .  A
C755        H765   1.082       .  S
N756        C757   1.357       .  A
N756        C926   1.442       .  S
C757        H763   1.083   1_556  S
C758        N759   1.360       .  A
C758        H760   1.083       .  S
N759        C761   1.359   1_556  A
N759        C919   1.447       .  S
C761        H762   1.082       .  S
C766        C768   1.549       .  S
C766        C770   1.554       .  S
C766        C769   1.533       .  S
C766        C959   1.536       .  S
C767        C771   1.554       .  S
C767        C773   1.544       .  S
C767        C772   1.534       .  S
C767        C949   1.535       .  S
C768        C776   1.384       .  A
C768        C771   1.397       .  A
C769        C780   1.382       .  A
C769        C772   1.380       .  A
C770        C784   1.387       .  A
C770        C773   1.398       .  A
C771        C774   1.387       .  A
C772        C778   1.382       .  A
C773        C781   1.381       .  A
C774        N775   1.363       .  A
C774        H787   1.083       .  S
N775        C776   1.358       .  A
N775        C909   1.451       .  S
C776        H777   1.082       .  S
C778        N779   1.359       .  A
C778        H788   1.082       .  S
N779        C780   1.357       .  A
N779        C886   1.442       .  S
C780        H786   1.083       .  S
C781        N782   1.355       .  A
C781        H783   1.083       .  S
N782        C784   1.360       .  A
N782        C899   1.441       .  S
C784        H785   1.082       .  S
O789       Mg791   2.160       .  S
O789      Mg1145   2.166   1_554  S
O789       C1172   1.238       .  S
C790        H829   1.080       .  S
C790        O803   1.238       .  S
C790        O827   1.273       .  A
Mg791       O835   2.346   1_554  S
O792       Mg817   2.146       .  S
O793        C824   1.272   1_545  A
O793       Mg817   2.304       .  S
C794        O796   1.275       .  A
C794        O808   1.276       .  A
C794        C929   1.501       .  S
O795        C823   1.270       .  A
O795      Mg1145   2.300       .  S
O796       Mg828   2.290       .  S
Mg797      O1137   2.166   1_546  S
Mg797       O803   2.162       .  S
Mg797      O1143   2.300   1_545  S
Mg797      O1159   2.285   1_545  S
Mg797       O799   2.330   1_556  S
C798        O836   1.275       .  A
C798        O804   1.277       .  A
C798        C996   1.510       .  S
O799        C806   1.278       .  A
C801       H1174   1.080       .  S
C801       O1163   1.238       .  S
C801        O816   1.271       .  A
O802        C825   1.270       .  A
O803       Mg817   2.152   1_556  S
O804       Mg834   2.320   1_554  S
C805        O818   1.273       .  A
C805        O810   1.275       .  A
C805        C916   1.493       .  S
C806        O833   1.271       .  A
C806       C1016   1.489       .  S
Mg807       O814   2.158       .  S
Mg807      O1163   2.172   1_554  S
Mg807       O808   2.309   1_554  S
Mg807      O1157   2.295       .  S
Mg807      O1184   2.297       .  S
O809        C813   1.269       .  A
O809      Mg1155   2.295   1_545  S
O810       Mg817   2.310   1_556  S
O811        C830   1.275       .  A
O811      Mg1145   2.285       .  S
O812        C832   1.279   1_556  A
O812       Mg828   2.332       .  S
O814       Mg828   2.166   1_554  S
O814        C825   1.237       .  S
O815      Mg1155   2.172   1_546  S
O815       Mg834   2.141       .  S
O815       C1149   1.238       .  S
O816       Mg828   2.292       .  S
Mg817       O833   2.263       .  S
H819       C1172   1.079       .  S
O820       Mg828   2.160       .  S
H822        C825   1.081       .  S
C824       H1167   1.079       .  S
C824       O1137   1.238       .  S
H826       C1149   1.080       .  S
C830        O835   1.282       .  A
C830        C939   1.498       .  S
O831        C832   1.278       .  A
C832       C1009   1.498       .  S
O836      Mg1155   2.297   1_545  S
O837       Mg839   2.157       .  S
C838        H877   1.082       .  S
C838        O851   1.236       .  S
C838        O875   1.269       .  A
Mg839      O1216   2.179   1_545  S
Mg839       O883   2.328       .  S
Mg839      O1227   2.295   1_545  S
Mg839      O1198   2.300   1_545  S
O840      Mg1230   2.162   1_545  S
O840       Mg865   2.150       .  S
O840       C1209   1.238   1_545  S
O841        C872   1.271       .  A
O841       Mg865   2.300       .  S
C842        O844   1.276       .  A
C842        O856   1.277       .  A
C842        C979   1.503       .  S
O843        C871   1.271       .  A
O844       Mg876   2.306       .  S
Mg845       O851   2.141       .  S
Mg845       O847   2.327       .  S
C846        O884   1.275       .  A
C846        O852   1.277       .  A
C846        C906   1.494       .  S
O847        C854   1.278       .  A
H848       C1209   1.079   1_545  S
C849        O864   1.272       .  A
O850        C873   1.270       .  A
O850      Mg1187   2.300       .  S
O851       Mg865   2.158       .  S
O852       Mg882   2.323       .  S
C853        O866   1.275       .  A
C853        O858   1.276       .  A
C853        C989   1.486       .  S
C854        O881   1.273       .  A
C854        C889   1.494       .  S
Mg855       O862   2.159       .  S
Mg855       O856   2.318       .  S
O857        C861   1.271       .  A
O858       Mg865   2.312       .  S
O859        C878   1.273       .  A
O860        C880   1.277       .  A
O860       Mg876   2.314       .  S
C861       H1196   1.079       .  S
C861       O1188   1.238       .  S
O862       Mg876   2.155       .  S
O862        C873   1.236       .  S
O863       Mg882   2.154       .  S
O864       Mg876   2.310       .  S
Mg865       O881   2.277       .  S
O866      Mg1230   2.282   1_545  S
O868      Mg1187   2.179       .  S
O868       Mg876   2.165       .  S
O868       C1219   1.237       .  S
H869       C1219   1.080       .  S
H870        C873   1.082       .  S
C871       H1217   1.080   1_545  S
C871       O1216   1.237   1_545  S
O875      Mg1230   2.295   1_545  S
C878        O883   1.279       .  A
C878        C966   1.497       .  S
O879        C880   1.275       .  A
O879      Mg1187   2.295       .  S
C880        C896   1.506       .  S
Mg882      O1188   2.162       .  S
Mg882      O1214   2.282       .  S
Mg882      O1223   2.295       .  S
C885        C886   1.408       .  A
C885        C890   1.411       .  A
C885       Br892   1.926       .  S
C886        C887   1.407       .  A
C887        C888   1.411       .  A
C887       Br894   1.928       .  S
C888        C889   1.419       .  A
C888       Br893   1.930       .  S
C889        C890   1.414       .  A
C890       Br891   1.930       .  S
C895        C896   1.423       .  A
C895        C900   1.411       .  A
C895       Br902   1.935       .  S
C896        C897   1.425       .  A
C897        C898   1.413       .  A
C897       Br904   1.928       .  S
C898        C899   1.402       .  A
C898       Br903   1.928       .  S
C899        C900   1.405       .  A
C900       Br901   1.926       .  S
C905        C906   1.414       .  A
C905        C910   1.410       .  A
C905       Br912   1.934       .  S
C906        C907   1.414       .  A
C907        C908   1.415       .  A
C907       Br914   1.929       .  S
C908        C909   1.414       .  A
C908       Br913   1.928       .  S
C909        C910   1.413       .  A
C910       Br911   1.922       .  S
C915        C916   1.416       .  A
C915        C920   1.413       .  A
C915       Br922   1.933       .  S
C916        C917   1.418   1_556  A
C917        C918   1.407   1_554  A
C917       Br924   1.936       .  S
C918        C919   1.410       .  A
C918       Br923   1.928   1_556  S
C919        C920   1.413       .  A
C920       Br921   1.926       .  S
C925        C926   1.403       .  A
C925        C930   1.413       .  A
C925       Br932   1.925       .  S
C926        C927   1.407       .  A
C927        C928   1.411       .  A
C927       Br934   1.926       .  S
C928        C929   1.421       .  A
C928       Br933   1.933       .  S
C929        C930   1.421       .  A
C930       Br931   1.931       .  S
C935        C936   1.409       .  A
C935        C940   1.413       .  A
C935       Br942   1.930       .  S
C936        C937   1.413       .  A
C937        C938   1.412       .  A
C937       Br944   1.922       .  S
C938        C939   1.411       .  A
C938       Br943   1.929       .  S
C939        C940   1.418       .  A
C940       Br941   1.927   1_556  S
C945        C946   1.422       .  A
C945        C950   1.407       .  A
C945       Br952   1.935       .  S
C946        C947   1.422       .  A
C947        C948   1.414       .  A
C947       Br954   1.938       .  S
C948        C949   1.420       .  A
C948       Br953   1.939       .  S
C949        C950   1.412       .  A
C950       Br951   1.933       .  S
C955        C956   1.422       .  A
C955        C960   1.413       .  A
C955       Br962   1.940       .  S
C956        C957   1.422       .  A
C957        C958   1.408       .  A
C957       Br964   1.938       .  S
C958        C959   1.418       .  A
C958       Br963   1.941       .  S
C959        C960   1.422       .  A
C960       Br961   1.942       .  S
C965        C966   1.414       .  A
C965        C970   1.411       .  A
C965       Br972   1.930       .  S
C966        C967   1.420       .  A
C967        C968   1.411       .  A
C967       Br974   1.930       .  S
C968        C969   1.406       .  A
C968       Br973   1.925       .  S
C969        C970   1.407       .  A
C970       Br971   1.924       .  S
C975        C976   1.414       .  A
C975        C980   1.419       .  A
C975       Br982   1.929       .  S
C976        C977   1.414       .  A
C977        C978   1.407       .  A
C977       Br984   1.930       .  S
C978        C979   1.418       .  A
C978       Br983   1.939       .  S
C979        C980   1.420       .  A
C980       Br981   1.931       .  S
C985        C986   1.412       .  A
C985        C990   1.408       .  A
C985       Br992   1.930       .  S
C986        C987   1.413       .  A
C987        C988   1.412       .  A
C987       Br994   1.927       .  S
C988        C989   1.412       .  A
C988       Br993   1.931       .  S
C989        C990   1.411       .  A
C990       Br991   1.928       .  S
C995        C996   1.426       .  A
C995       C1000   1.414       .  A
C995      Br1002   1.930       .  S
C996        C997   1.423       .  A
C997        C998   1.413       .  A
C997      Br1004   1.935       .  S
C998        C999   1.404       .  A
C998      Br1003   1.925       .  S
C999       C1000   1.403       .  A
C1000     Br1001   1.928       .  S
C1005      C1006   1.413       .  A
C1005      C1010   1.417       .  A
C1005     Br1012   1.927       .  S
C1006      C1007   1.409       .  A
C1007      C1008   1.408       .  A
C1007     Br1014   1.921   1_554  S
C1008      C1009   1.414       .  A
C1008     Br1013   1.927   1_554  S
C1009      C1010   1.416       .  A
C1010     Br1011   1.930       .  S
C1015      C1016   1.416       .  A
C1015      C1020   1.410       .  A
C1015     Br1022   1.933   1_554  S
C1016      C1017   1.412       .  A
C1017      C1018   1.411       .  A
C1017     Br1024   1.929       .  S
C1018      C1019   1.410       .  A
C1018     Br1023   1.927       .  S
C1019      C1020   1.409       .  A
C1020     Br1021   1.929   1_554  S
C1025      C1026   1.413       .  A
C1025      C1030   1.411       .  A
C1025     Br1032   1.931       .  S
C1026      C1027   1.418       .  A
C1027      C1028   1.415       .  A
C1027     Br1034   1.939       .  S
C1028      C1029   1.425       .  A
C1028     Br1033   1.939       .  S
C1029      C1030   1.423       .  A
C1030     Br1031   1.939       .  S
C1035      C1036   1.424       .  A
C1035      C1040   1.416       .  A
C1035     Br1042   1.939       .  S
C1036      C1037   1.420       .  A
C1037      C1038   1.409       .  A
C1037     Br1044   1.932       .  S
C1038      C1039   1.417       .  A
C1038     Br1043   1.940       .  S
C1039      C1040   1.418       .  A
C1040     Br1041   1.938       .  S
C1045      C1047   1.547       .  S
C1045      C1049   1.539       .  S
C1045      C1048   1.551       .  S
C1045      C1387   1.539       .  S
C1046      C1050   1.540   1_556  S
C1046      C1052   1.551   1_556  S
C1046      C1051   1.547   1_556  S
C1046      C1374   1.541       .  S
C1047      C1055   1.387       .  A
C1047      C1050   1.391       .  A
C1048      C1059   1.385       .  A
C1048      C1051   1.399       .  A
C1049      C1063   1.382       .  A
C1049      C1052   1.390       .  A
C1050      C1053   1.381       .  A
C1051      C1057   1.381       .  A
C1052      C1060   1.388   1_554  A
C1053      N1054   1.358       .  A
C1053      H1066   1.082   1_554  S
N1054      C1055   1.359       .  A
N1054      C1347   1.443       .  S
C1055      H1056   1.083       .  S
C1057      N1058   1.357       .  A
C1057      H1067   1.082   1_554  S
N1058      C1059   1.358       .  A
N1058      C1367   1.443       .  S
C1059      H1065   1.082       .  S
C1060      N1061   1.363   1_556  A
C1060      H1062   1.081       .  S
N1061      C1063   1.358       .  A
N1061      C1354   1.450       .  S
C1063      H1064   1.083       .  S
C1068      C1070   1.552       .  S
C1068      C1072   1.543       .  S
C1068      C1071   1.533       .  S
C1068      C1384   1.544       .  S
C1069      C1073   1.533       .  S
C1069      C1075   1.557       .  S
C1069      C1074   1.554       .  S
C1069      C1377   1.543       .  S
C1070      C1078   1.390       .  A
C1070      C1073   1.389       .  A
C1071      C1082   1.374       .  A
C1071      C1074   1.389       .  A
C1072      C1086   1.377       .  A
C1072      C1075   1.400       .  A
C1073      C1076   1.379       .  A
C1074      C1080   1.392       .  A
C1075      C1083   1.386       .  A
C1076      N1077   1.354       .  A
C1076      H1089   1.083       .  S
N1077      C1078   1.362       .  A
N1077      C1317   1.442       .  S
C1078      H1079   1.082       .  S
C1080      N1081   1.366       .  A
C1080      H1090   1.082       .  S
N1081      C1082   1.357       .  A
N1081      C1324   1.453       .  S
C1082      H1088   1.082       .  S
C1083      N1084   1.360       .  A
C1083      H1085   1.082       .  S
N1084      C1086   1.357       .  A
N1084      C1334   1.445       .  S
C1086      H1087   1.082       .  S
C1091      C1093   1.548   1_554  S
C1091      C1095   1.530   1_554  S
C1091      C1094   1.552   1_554  S
C1091      C1304   1.538       .  S
C1092      C1096   1.554       .  S
C1092      C1098   1.535       .  S
C1092      C1097   1.549       .  S
C1092      C1294   1.537       .  S
C1093      C1101   1.382       .  A
C1093      C1096   1.399       .  A
C1094      C1105   1.385       .  A
C1094      C1097   1.398       .  A
C1095      C1109   1.379   1_556  A
C1095      C1098   1.377       .  A
C1096      C1099   1.387       .  A
C1097      C1103   1.386       .  A
C1098      C1106   1.384       .  A
C1099      N1100   1.360       .  A
C1099      H1112   1.082       .  S
N1100      C1101   1.360       .  A
N1100      C1284   1.448       .  S
C1101      H1102   1.083   1_556  S
C1103      N1104   1.358       .  A
C1103      H1113   1.082       .  S
N1104      C1105   1.357       .  A
N1104      C1274   1.442       .  S
C1105      H1111   1.083   1_556  S
C1106      N1107   1.360       .  A
C1106      H1108   1.083       .  S
N1107      C1109   1.359   1_556  A
N1107      C1267   1.447       .  S
C1109      H1110   1.082       .  S
C1114      C1116   1.549       .  S
C1114      C1118   1.554       .  S
C1114      C1117   1.533       .  S
C1114      C1307   1.536       .  S
C1115      C1119   1.554       .  S
C1115      C1121   1.544       .  S
C1115      C1120   1.534       .  S
C1115      C1297   1.535       .  S
C1116      C1124   1.384       .  A
C1116      C1119   1.397       .  A
C1117      C1128   1.382       .  A
C1117      C1120   1.380       .  A
C1118      C1132   1.387       .  A
C1118      C1121   1.398       .  A
C1119      C1122   1.387       .  A
C1120      C1126   1.382       .  A
C1121      C1129   1.381       .  A
C1122      N1123   1.363       .  A
C1122      H1135   1.083       .  S
N1123      C1124   1.358       .  A
N1123      C1257   1.451       .  S
C1124      H1125   1.082       .  S
C1126      N1127   1.359       .  A
C1126      H1136   1.082       .  S
N1127      C1128   1.357       .  A
N1127      C1234   1.442       .  S
C1128      H1134   1.083       .  S
C1129      N1130   1.355       .  A
C1129      H1131   1.083       .  S
N1130      C1132   1.360       .  A
N1130      C1247   1.441       .  S
C1132      H1133   1.082       .  S
O1137     Mg1139   2.160       .  S
C1138      H1177   1.080       .  S
C1138      O1151   1.238       .  S
C1138      O1175   1.273       .  A
Mg1139     O1183   2.346   1_554  S
O1140     Mg1165   2.146       .  S
O1141      C1172   1.272       .  A
O1141     Mg1165   2.304       .  S
C1142      O1144   1.275       .  A
C1142      O1156   1.276       .  A
C1142      C1277   1.501       .  S
O1143      C1171   1.270       .  A
O1144     Mg1176   2.290       .  S
Mg1145     O1151   2.162       .  S
Mg1145     O1147   2.330   1_556  S
C1146      O1184   1.275       .  A
C1146      O1152   1.277       .  A
C1146      C1344   1.510       .  S
O1147      C1154   1.278       .  A
C1149      O1164   1.271   1_545  A
O1150      C1173   1.270       .  A
O1151     Mg1165   2.152   1_556  S
O1152     Mg1182   2.320   1_554  S
C1153      O1166   1.273       .  A
C1153      O1158   1.275       .  A
C1153      C1264   1.493       .  S
C1154      O1181   1.271       .  A
C1154      C1364   1.489       .  S
Mg1155     O1162   2.158       .  S
Mg1155     O1156   2.309   1_554  S
O1157      C1161   1.269       .  A
O1158     Mg1165   2.310   1_556  S
O1159      C1178   1.275       .  A
O1160      C1180   1.279   1_556  A
O1160     Mg1176   2.332       .  S
O1162     Mg1176   2.166   1_554  S
O1162      C1173   1.237       .  S
O1163     Mg1182   2.141       .  S
O1164     Mg1176   2.292       .  S
Mg1165     O1181   2.263       .  S
O1168     Mg1176   2.160       .  S
H1170      C1173   1.081       .  S
C1178      O1183   1.282       .  A
C1178      C1287   1.498       .  S
O1179      C1180   1.278       .  A
C1180      C1357   1.498       .  S
O1185     Mg1187   2.157       .  S
C1186      H1225   1.082       .  S
C1186      O1199   1.236       .  S
C1186      O1223   1.269       .  A
Mg1187     O1231   2.328       .  S
O1188     Mg1213   2.150       .  S
O1189      C1220   1.271       .  A
O1189     Mg1213   2.300       .  S
C1190      O1192   1.276       .  A
C1190      O1204   1.277       .  A
C1190      C1327   1.503       .  S
O1191      C1219   1.271       .  A
O1192     Mg1224   2.306       .  S
Mg1193     O1199   2.141       .  S
Mg1193     O1195   2.327       .  S
C1194      O1232   1.275       .  A
C1194      O1200   1.277       .  A
C1194      C1254   1.494       .  S
O1195      C1202   1.278       .  A
C1197      O1212   1.272       .  A
O1198      C1221   1.270       .  A
O1199     Mg1213   2.158       .  S
O1200     Mg1230   2.323       .  S
C1201      O1214   1.275       .  A
C1201      O1206   1.276       .  A
C1201      C1337   1.486       .  S
C1202      O1229   1.273       .  A
C1202      C1237   1.494       .  S
Mg1203     O1210   2.159       .  S
Mg1203     O1204   2.318       .  S
O1205      C1209   1.271       .  A
O1206     Mg1213   2.312       .  S
O1207      C1226   1.273       .  A
O1208      C1228   1.277       .  A
O1208     Mg1224   2.314       .  S
O1210     Mg1224   2.155       .  S
O1210      C1221   1.236       .  S
O1211     Mg1230   2.154       .  S
O1212     Mg1224   2.310       .  S
Mg1213     O1229   2.277       .  S
O1216     Mg1224   2.165       .  S
H1218      C1221   1.082       .  S
C1226      O1231   1.279       .  A
C1226      C1314   1.497       .  S
O1227      C1228   1.275       .  A
C1228      C1244   1.506       .  S
C1233      C1234   1.408       .  A
C1233      C1238   1.411       .  A
C1233     Br1240   1.926       .  S
C1234      C1235   1.407       .  A
C1235      C1236   1.411       .  A
C1235     Br1242   1.928       .  S
C1236      C1237   1.419       .  A
C1236     Br1241   1.930       .  S
C1237      C1238   1.414       .  A
C1238     Br1239   1.930       .  S
C1243      C1244   1.423       .  A
C1243      C1248   1.411       .  A
C1243     Br1250   1.935       .  S
C1244      C1245   1.425       .  A
C1245      C1246   1.413       .  A
C1245     Br1252   1.928       .  S
C1246      C1247   1.402       .  A
C1246     Br1251   1.928       .  S
C1247      C1248   1.405       .  A
C1248     Br1249   1.926       .  S
C1253      C1254   1.414       .  A
C1253      C1258   1.410       .  A
C1253     Br1260   1.934       .  S
C1254      C1255   1.414       .  A
C1255      C1256   1.415       .  A
C1255     Br1262   1.929       .  S
C1256      C1257   1.414       .  A
C1256     Br1261   1.928       .  S
C1257      C1258   1.413       .  A
C1258     Br1259   1.922       .  S
C1263      C1264   1.416       .  A
C1263      C1268   1.413       .  A
C1263     Br1270   1.933       .  S
C1264      C1265   1.418   1_556  A
C1265      C1266   1.407   1_554  A
C1265     Br1272   1.936       .  S
C1266      C1267   1.410       .  A
C1266     Br1271   1.928   1_556  S
C1267      C1268   1.413       .  A
C1268     Br1269   1.926       .  S
C1273      C1274   1.403       .  A
C1273      C1278   1.413       .  A
C1273     Br1280   1.925       .  S
C1274      C1275   1.407       .  A
C1275      C1276   1.411       .  A
C1275     Br1282   1.926       .  S
C1276      C1277   1.421       .  A
C1276     Br1281   1.933       .  S
C1277      C1278   1.421       .  A
C1278     Br1279   1.931       .  S
C1283      C1284   1.409       .  A
C1283      C1288   1.413       .  A
C1283     Br1290   1.930       .  S
C1284      C1285   1.413       .  A
C1285      C1286   1.412       .  A
C1285     Br1292   1.922       .  S
C1286      C1287   1.411       .  A
C1286     Br1291   1.929       .  S
C1287      C1288   1.418       .  A
C1288     Br1289   1.927   1_556  S
C1293      C1294   1.422       .  A
C1293      C1298   1.407       .  A
C1293     Br1300   1.935       .  S
C1294      C1295   1.422       .  A
C1295      C1296   1.414       .  A
C1295     Br1302   1.938       .  S
C1296      C1297   1.420       .  A
C1296     Br1301   1.939       .  S
C1297      C1298   1.412       .  A
C1298     Br1299   1.933       .  S
C1303      C1304   1.422       .  A
C1303      C1308   1.413       .  A
C1303     Br1310   1.940       .  S
C1304      C1305   1.422       .  A
C1305      C1306   1.408       .  A
C1305     Br1312   1.938       .  S
C1306      C1307   1.418       .  A
C1306     Br1311   1.941       .  S
C1307      C1308   1.422       .  A
C1308     Br1309   1.942       .  S
C1313      C1314   1.414       .  A
C1313      C1318   1.411       .  A
C1313     Br1320   1.929       .  S
C1314      C1315   1.420       .  A
C1315      C1316   1.411       .  A
C1315     Br1322   1.930       .  S
C1316      C1317   1.406       .  A
C1316     Br1321   1.925       .  S
C1317      C1318   1.407       .  A
C1318     Br1319   1.924       .  S
C1323      C1324   1.414       .  A
C1323      C1328   1.419       .  A
C1323     Br1330   1.929       .  S
C1324      C1325   1.414       .  A
C1325      C1326   1.407       .  A
C1325     Br1332   1.930       .  S
C1326      C1327   1.418       .  A
C1326     Br1331   1.939       .  S
C1327      C1328   1.420       .  A
C1328     Br1329   1.931       .  S
C1333      C1334   1.412       .  A
C1333      C1338   1.408       .  A
C1333     Br1340   1.930       .  S
C1334      C1335   1.413       .  A
C1335      C1336   1.412       .  A
C1335     Br1342   1.927       .  S
C1336      C1337   1.412       .  A
C1336     Br1341   1.931       .  S
C1337      C1338   1.411       .  A
C1338     Br1339   1.928       .  S
C1343      C1344   1.426       .  A
C1343      C1348   1.414       .  A
C1343     Br1350   1.930       .  S
C1344      C1345   1.423       .  A
C1345      C1346   1.413       .  A
C1345     Br1352   1.935       .  S
C1346      C1347   1.404       .  A
C1346     Br1351   1.925       .  S
C1347      C1348   1.403       .  A
C1348     Br1349   1.928       .  S
C1353      C1354   1.413       .  A
C1353      C1358   1.417       .  A
C1353     Br1360   1.927       .  S
C1354      C1355   1.409       .  A
C1355      C1356   1.408       .  A
C1355     Br1362   1.921   1_554  S
C1356      C1357   1.414       .  A
C1356     Br1361   1.927   1_554  S
C1357      C1358   1.416       .  A
C1358     Br1359   1.930       .  S
C1363      C1364   1.416       .  A
C1363      C1368   1.410       .  A
C1363     Br1370   1.933   1_554  S
C1364      C1365   1.412       .  A
C1365      C1366   1.411       .  A
C1365     Br1372   1.929       .  S
C1366      C1367   1.410       .  A
C1366     Br1371   1.927       .  S
C1367      C1368   1.409       .  A
C1368     Br1369   1.929   1_554  S
C1373      C1374   1.413       .  A
C1373      C1378   1.411       .  A
C1373     Br1380   1.931       .  S
C1374      C1375   1.418       .  A
C1375      C1376   1.415       .  A
C1375     Br1382   1.939       .  S
C1376      C1377   1.425       .  A
C1376     Br1381   1.939       .  S
C1377      C1378   1.423       .  A
C1378     Br1379   1.939       .  S
C1383      C1384   1.424       .  A
C1383      C1388   1.416       .  A
C1383     Br1390   1.939       .  S
C1384      C1385   1.420       .  A
C1385      C1386   1.409       .  A
C1385     Br1392   1.932       .  S
C1386      C1387   1.417       .  A
C1386     Br1391   1.940       .  S
C1387      C1388   1.418       .  A
C1388     Br1389   1.938       .  S
