geometry optimzed in LAMMPS
_audit_creation_date              2020-12-01 
_audit_creation_method            'lammps2cif' 
_symmetry_space_group_name_H-M    'P1' 
_symmetry_Int_Tables_number       1 
_symmetry_cell_setting            triclinic 
loop_ 
_symmetry_equiv_pos_as_xyz 
  x,y,z 
_cell_length_a                    50.94521094 
_cell_length_b                    50.90568237554524 
_cell_length_c                    17.269573568019954 
_cell_angle_alpha                 90.1291842951977 
_cell_angle_beta                  89.79265377451503 
_cell_angle_gamma                 120.27141284283084 
loop_ 
_atom_site_label 
_atom_site_type_symbol 
_atom_site_fract_x 
_atom_site_fract_y 
_atom_site_fract_z 
_atom_site_charge 
C1          C  0.33260684  0.16552008  0.16480446     0.31500
C2          C  0.33210625  0.16221198  0.00588529     0.31500
C3          C  0.35041033  0.15130773  0.12862739    -0.04700
C4          C  0.30118102  0.14716766  0.12708028    -0.05500
C5          C  0.34681319  0.19636090  0.12138754    -0.05300
C6          C  0.34985698  0.14956827  0.04811830    -0.04700
C7          C  0.30069077  0.14560610  0.04645862    -0.05400
C8          C  0.34562415  0.19450080  0.04075306    -0.05300
C9          C  0.36570971  0.13537831  0.02656624    -0.30700
N10         N  0.37603469  0.12858125  0.09140050     0.15800
C11         C  0.36717314  0.13839369  0.15404498    -0.30700
H12         H  0.37217465  0.13578405  0.21340768     0.17700
C13         C  0.27040524  0.13104419  0.02551275    -0.29700
N14         N  0.25285432  0.12267888  0.09041372     0.14500
C15         C  0.27145300  0.13276197  0.15295748    -0.29700
C16         C  0.35873751  0.22393022  0.01286321    -0.30000
N17         N  0.36938579  0.24366980  0.07341318     0.15000
H18         H  0.36132732  0.23062572  0.95268147     0.17600
C19         C  0.36274921  0.22707229  0.13960795    -0.29800
H20         H  0.36954393  0.23682516  0.19679690     0.17600
H21         H  0.26395362  0.13010917  0.21257828     0.17600
H22         H  0.36886533  0.12967917  0.96814129     0.17700
H23         H  0.26148548  0.12776616  0.96732288     0.17600
C24         C  0.33556737  0.16791304  0.50556166     0.31500
C25         C  0.33457621  0.16536215  0.66443326     0.31500
C26         C  0.35021533  0.15094816  0.54235959    -0.04700
C27         C  0.35285083  0.19891629  0.54738526    -0.05500
C28         C  0.30417665  0.15300210  0.54357679    -0.05300
C29         C  0.34947238  0.14927630  0.62271280    -0.04700
C30         C  0.35154721  0.19793119  0.62832225    -0.05400
C31         C  0.30314265  0.15160703  0.62400708    -0.05300
C32         C  0.36352745  0.13302433  0.64338953    -0.30700
N33         N  0.37278804  0.12512724  0.57765848     0.15800
C34         C  0.36541017  0.13665771  0.51627532    -0.30700
H35         H  0.37114964  0.13501743  0.45672586     0.17700
C36         C  0.36598615  0.22809237  0.65321303    -0.29700
N37         N  0.37750894  0.24673224  0.59048786     0.14500
C38         C  0.37016436  0.22910466  0.52619530    -0.29700
C39         C  0.27253931  0.13821908  0.64389688    -0.30000
N40         N  0.25567427  0.13117694  0.57794539     0.15000
H41         H  0.26312381  0.13426949  0.70175715     0.17600
C42         C  0.27492334  0.14033749  0.51661166    -0.30000
H43         H  0.26806683  0.13766640  0.45647797     0.17600
H44         H  0.37668366  0.23790656  0.46803044     0.17600
H45         H  0.36655360  0.12721905  0.70159440     0.17700
H46         H  0.36794471  0.23596474  0.71231884     0.17600
C47         C  0.17005635  0.33727315  0.98740302     0.31500
C48         C  0.16654823  0.33607190  0.82871501     0.31500
C49         C  0.15381063  0.35259690  0.95171476    -0.04700
C50         C  0.20079432  0.35259373  0.94409727    -0.05500
C51         C  0.15410820  0.30562028  0.94952999    -0.05300
C52         C  0.15212585  0.35264892  0.87141162    -0.04700
C53         C  0.19917127  0.35266293  0.86324379    -0.05400
C54         C  0.15177311  0.30484197  0.86933556    -0.05300
C55         C  0.13791051  0.36913959  0.85396859    -0.30700
N56         N  0.12998132  0.37747132  0.92120746     0.15800
C57         C  0.14013514  0.36781445  0.98094476    -0.30700
H58         H  0.13794806  0.37177837  0.04163826     0.17700
C59         C  0.22891868  0.36792290  0.83608444    -0.29700
N60         N  0.24798186  0.37564882  0.89747936     0.14500
C61         C  0.23114173  0.36607827  0.96322109    -0.29700
C62         C  0.13686675  0.27446208  0.84772118    -0.30000
N63         N  0.13081344  0.25708894  0.91259817     0.15000
H64         H  0.13135597  0.26573594  0.78922755     0.17600
C65         C  0.14178367  0.27605019  0.97446150    -0.30000
H66         H  0.14053064  0.26871254  0.03378102     0.17600
H67         H  0.24056198  0.36849208  0.02054135     0.17600
H68         H  0.13336908  0.37453128  0.79689043     0.17700
H69         H  0.23630160  0.37320739  0.77642488     0.17600
C70         C  0.16746628  0.33739407  0.32880114     0.31500
C71         C  0.16520413  0.33750125  0.48766400     0.31500
C72         C  0.15044609  0.35221495  0.36505641    -0.04700
C73         C  0.15210845  0.30582258  0.36821322    -0.05500
C74         C  0.19860056  0.35367825  0.37084917    -0.05300
C75         C  0.14974592  0.35286680  0.44578632    -0.04700
C76         C  0.15101084  0.30623170  0.44854872    -0.05400
C77         C  0.19720790  0.35458156  0.45129227    -0.05300
C78         C  0.13609761  0.36949571  0.46542848    -0.30700
N79         N  0.12693481  0.37706472  0.39976229     0.15800
C80         C  0.13562912  0.36677882  0.33787746    -0.30700
H81         H  0.13188245  0.37008179  0.27796141     0.17700
C82         C  0.13703273  0.27664984  0.47384505    -0.29700
N83         N  0.12903098  0.25781153  0.41151687     0.14500
C84         C  0.13867115  0.27550477  0.34671557    -0.29700
C85         C  0.22665704  0.37051253  0.47806507    -0.30000
N86         N  0.24606137  0.37751005  0.41732633     0.15000
H87         H  0.23350448  0.37645299  0.53770049     0.17600
C88         C  0.22914869  0.36689583  0.35177308    -0.30000
H89         H  0.23843872  0.36789124  0.29468585     0.17600
H90         H  0.13565920  0.26695306  0.28817951     0.17600
H91         H  0.13316046  0.37603902  0.52303598     0.17700
H92         H  0.13340299  0.26950732  0.53382699     0.17600
O93         O  0.03784019  0.48706268  0.06139299    -0.86800
C94         C  0.04921443  0.04800495  0.88836906     0.89200
Mg95       Mg  0.00445882  0.43925131  0.05949646     1.58100
O96         O  0.01364994  0.05514840  0.05485565    -0.86500
O97         O  0.05043762  0.02778870  0.13527202    -0.73900
C98         C  0.37710720  0.43474661  0.94077268     0.94300
O99         O  0.02596588  0.47348068  0.87922937    -0.73700
O100        O  0.39019699  0.41908877  0.93518184    -0.81200
Mg101      Mg  0.06590931  0.00692026  0.95959046     1.58000
C102        C  0.43369190  0.05717021  0.05091303     0.94200
O103        O  0.10854991  0.03823664  0.02959816    -0.79500
H104        H  0.01349799  0.06195889  0.16880573    -0.04800
C105        C  0.45765680  0.50187494  0.87669912     0.89100
O106        O  0.47088181  0.44609703  0.12756345    -0.74000
O107        O  0.05298950  0.04102804  0.95421793    -0.86700
O108        O  0.46111636  0.07051848  0.02642915    -0.79500
C109        C  0.06121313  0.12701110  0.95997916     0.94300
C110        C  0.12336511  0.06523588  0.05617117     0.94200
Mg111      Mg  0.43340717  0.49356606  0.04128684     1.58000
O112        O  0.39106169  0.46175044  0.96808729    -0.79500
O113        O  0.47148540  0.02411910  0.13676475    -0.73700
O114        O  0.07392614  0.11302641  0.98869830    -0.79500
O115        O  0.07982897  0.47050549  0.95913482    -0.81300
O116        O  0.42713932  0.38873133  0.00910059    -0.79600
C117        C  0.49894268  0.04525555  0.12842292     0.88600
O118        O  0.44678445  0.45984664  0.04728335    -0.86700
O119        O  0.46062922  0.01183648  0.95491453    -0.86800
O120        O  0.45072985  0.47439606  0.86615956    -0.73900
Mg121      Mg  0.06083967  0.06837199  0.05660236     1.58000
O122        O  0.03258915  0.11343368  0.94842259    -0.81300
H123        H  0.04260440  0.48601233  0.17603857    -0.05000
O124        O  0.48774637  0.44747990  0.94774851    -0.86500
H125        H  0.48872499  0.44183298  0.83346110    -0.04800
H126        H  0.43679264  0.45343740  0.16030601    -0.05000
C127        C  0.99871589  0.45225987  0.88967797     0.88600
C128        C  0.04329160  0.00016773  0.12615057     0.89200
C129        C  0.45055017  0.45284020  0.11313034     0.89200
H130        H  0.45622762  0.01360907  0.84028281    -0.05000
O131        O  0.02903658  0.05496975  0.87414120    -0.74000
Mg132      Mg  0.44045999  0.43355562  0.94368080     1.58000
H133        H  0.06278168  0.04716464  0.84110522    -0.05000
C134        C  0.06520382  0.44186290  0.97000242     0.94200
O135        O  0.46807112  0.38802484  0.05121976    -0.81200
C136        C  0.43957009  0.37450087  0.03754561     0.94200
O137        O  0.11118426  0.08174092  0.06308068    -0.81200
Mg138      Mg  0.49418021  0.05972146  0.96002942     1.58200
O139        O  0.03804829  0.42809728  0.99655558    -0.79500
O140        O  0.41804601  0.02824694  0.05631840    -0.81200
O141        O  0.48822085  0.03937480  0.43125904    -0.86800
C142        C  0.04873576  0.05135994  0.60106953     0.89200
Mg143      Mg  0.44039021  0.00575531  0.43295659     1.58100
O144        O  0.05316924  0.01585158  0.43084060    -0.86500
O145        O  0.02643768  0.05435441  0.35622300    -0.73900
C146        C  0.43505959  0.37642772  0.53900346     0.94300
O147        O  0.47422981  0.02712619  0.61234689    -0.73700
O148        O  0.41943384  0.38956369  0.54626743    -0.81200
Mg149      Mg  0.00818132  0.06926081  0.53676519     1.58000
C150        C  0.05600550  0.43481912  0.43899076     0.94200
O151        O  0.03972605  0.11297059  0.46801713    -0.79500
H152        H  0.05696270  0.01569992  0.31558755    -0.04800
C153        C  0.50251281  0.45643075  0.60642996     0.89100
O154        O  0.44865637  0.47483997  0.36121160    -0.74000
O155        O  0.04175243  0.05599870  0.53617849    -0.86700
O156        O  0.06924104  0.46215004  0.46337616    -0.79500
C157        C  0.12613235  0.06291227  0.52442407     0.94300
C158        C  0.06663700  0.12712244  0.44012220     0.94200
Mg159      Mg  0.49405710  0.43460907  0.44043816     1.58000
O160        O  0.46204885  0.39072636  0.51121283    -0.79500
O161        O  0.02285516  0.47373788  0.35909883    -0.73700
O162        O  0.11238642  0.07587084  0.49601725    -0.79500
O163        O  0.47052039  0.08106114  0.53416966    -0.81300
O164        O  0.38971383  0.42925008  0.47943979    -0.79600
C165        C  0.04400900  0.50128435  0.36725740     0.88600
O166        O  0.46031108  0.44785388  0.43752973    -0.86700
O167        O  0.01137284  0.46148823  0.53940750    -0.86800
O168        O  0.47501566  0.44906758  0.61838274    -0.73900
Mg169      Mg  0.06752255  0.06347998  0.43111880     1.58000
O170        O  0.11233245  0.03417606  0.53475498    -0.81300
H171        H  0.48753155  0.04554301  0.31711771    -0.05000
O172        O  0.44905307  0.48819606  0.54305918    -0.86500
H173        H  0.44356568  0.48704178  0.65793397    -0.04800
H174        H  0.45502052  0.44070988  0.32330369    -0.05000
C175        C  0.45314183  0.99975930  0.60263663     0.88600
C176        C  0.99909207  0.04736323  0.36937283     0.89200
C177        C  0.45428394  0.45351069  0.37249774     0.89200
H178        H  0.01398367  0.45609672  0.65326950    -0.05000
O179        O  0.05472101  0.03035481  0.61311798    -0.74000
Mg180      Mg  0.43437790  0.44050328  0.54248373     1.58000
H181        H  0.04850144  0.06474194  0.64951873    -0.05000
C182        C  0.44179624  0.06546083  0.52459842     0.94200
O183        O  0.39068335  0.47129300  0.43849117    -0.81200
C184        C  0.37643161  0.44277425  0.45164360     0.94200
O185        O  0.08188568  0.11389072  0.42812445    -0.81200
Mg186      Mg  0.05938447  0.49443161  0.53350596     1.58200
O187        O  0.42893150  0.03849145  0.49731844    -0.79500
O188        O  0.02714068  0.41893353  0.43493282    -0.81200
C189        C  0.07504093  0.17802735  0.47927187     0.25100
C190        C  0.08114960  0.16044194  0.42733921    -0.23000
C191        C  0.10236165  0.17530498  0.36741323     0.20000
C192        C  0.11773603  0.20718044  0.36104052     0.25100
C193        C  0.11225015  0.22486056  0.41468640    -0.22900
C194        C  0.09022914  0.20968010  0.47293918     0.20000
F195        F  0.08304265  0.22538719  0.52401333    -0.12900
F196        F  0.05515531  0.16466616  0.53875567    -0.15200
F197        F  0.13876712  0.22067597  0.30409803    -0.15200
F198        F  0.10819020  0.15899821  0.31488139    -0.12900
C199        C  0.32440002  0.40249168  0.49276542     0.25100
C200        C  0.34304740  0.42495979  0.43893379    -0.23000
C201        C  0.32927342  0.43105223  0.37627811     0.20000
C202        C  0.29750340  0.41492196  0.36782354     0.25100
C203        C  0.27884407  0.39285443  0.42277216    -0.22900
C204        C  0.29276955  0.38672525  0.48496666     0.20000
F205        F  0.27576651  0.36521786  0.53834471    -0.12900
F206        F  0.33675157  0.39663582  0.55523441    -0.15200
F207        F  0.28495554  0.42169615  0.30748724    -0.15200
F208        F  0.34653684  0.45256127  0.32309901    -0.12900
C209        C  0.12380596  0.42288299  0.42399965     0.25100
C210        C  0.11019679  0.39279620  0.39801086    -0.23000
C211        C  0.07927197  0.37727206  0.37853118     0.20000
C212        C  0.06169506  0.39112427  0.38914982     0.25100
C213        C  0.07496883  0.42103379  0.41870260    -0.22900
C214        C  0.10659163  0.43706703  0.43340864     0.20000
F215        F  0.12089477  0.46616089  0.45980445    -0.12900
F216        F  0.15379304  0.43826713  0.44215551    -0.15200
F217        F  0.03155968  0.37483923  0.37271516    -0.15200
F218        F  0.06578114  0.34807561  0.35324502    -0.12900
C219        C  0.10805161  0.17833255  0.98085365     0.25100
C220        C  0.08019849  0.16027273  0.94236041    -0.23000
C221        C  0.07026813  0.17471182  0.88987494     0.20000
C222        C  0.08741937  0.20632248  0.87769074     0.25100
C223        C  0.11481442  0.22425646  0.91774221    -0.22900
C224        C  0.12506370  0.20978999  0.96860230     0.20000
F225        F  0.15164961  0.22626329  0.00726580    -0.12900
F226        F  0.11839824  0.16583657  0.03317888    -0.15200
F227        F  0.07646402  0.21959492  0.82965134    -0.15200
F228        F  0.04378879  0.15834060  0.85068576    -0.12900
C229        C  0.32807024  0.43575670  0.93837623     0.25100
C230        C  0.34434289  0.42091898  0.91886725    -0.23000
C231        C  0.32829264  0.39199840  0.88305800     0.20000
C232        C  0.29673900  0.37781174  0.87143522     0.25100
C233        C  0.28065054  0.39205300  0.89569542    -0.22900
C234        C  0.29663891  0.42134831  0.92723987     0.20000
F235        F  0.28144179  0.43562925  0.94962829    -0.12900
F236        F  0.34216839  0.46373019  0.97170577    -0.15200
F237        F  0.28158484  0.34947616  0.84032807    -0.15200
F238        F  0.34281876  0.37694239  0.86137086    -0.12900
C239        C  0.11835259  0.41746200  0.88236413     0.25100
C240        C  0.11257638  0.39260771  0.92955100    -0.23000
C241        C  0.09005272  0.38324993  0.98746050     0.20000
C242        C  0.07424732  0.39879654  0.99928946     0.25100
C243        C  0.08060233  0.42420916  0.95366655    -0.22900
C244        C  0.10273294  0.43327530  0.89474358     0.20000
F245        F  0.10925824  0.45747050  0.84892353    -0.12900
F246        F  0.13990210  0.42717334  0.82610466    -0.15200
F247        F  0.05352659  0.38962293  0.05761784    -0.15200
F248        F  0.08312236  0.35878165  0.03259175    -0.12900
C249        C  0.18400046  0.32859530  0.61603985     0.25100
C250        C  0.16378182  0.33507982  0.57617916    -0.23000
C251        C  0.13897579  0.33246979  0.61923284     0.20000
C252        C  0.13911354  0.33159462  0.70033197     0.25100
C253        C  0.16417648  0.33365741  0.74034352    -0.22900
C254        C  0.18424264  0.32796382  0.69685285     0.20000
F255        F  0.20269300  0.31960668  0.73198403    -0.12900
F256        F  0.20219654  0.32073066  0.57700620    -0.15200
F257        F  0.11329731  0.32527779  0.73859980    -0.15200
F258        F  0.11308362  0.32719913  0.58368165    -0.12900
C259        C  0.14299687  0.31736787  0.11682516     0.25100
C260        C  0.16953784  0.33807516  0.07597693    -0.23000
C261        C  0.19161359  0.36328395  0.11811987     0.20000
C262        C  0.19062330  0.36352413  0.19907155     0.25100
C263        C  0.16782441  0.33835443  0.24027782    -0.22900
C264        C  0.14226541  0.31731310  0.19765784     0.20000
F265        F  0.11556802  0.29831663  0.23359686    -0.12900
F266        F  0.11673400  0.29880693  0.07884949    -0.15200
F267        F  0.21000745  0.38980790  0.23592502    -0.15200
F268        F  0.21210452  0.38921861  0.08167072    -0.12900
C269        C  0.37885181  0.08478515  0.51514201     0.25100
C270        C  0.38808245  0.10782781  0.57138882    -0.23000
C271        C  0.41395487  0.11538969  0.61600824     0.20000
C272        C  0.43130450  0.10147593  0.60157236     0.25100
C273        C  0.42268145  0.07916052  0.54335951    -0.22900
C274        C  0.39578071  0.07047208  0.50162081     0.20000
F275        F  0.38648348  0.04903156  0.44510301    -0.12900
F276        F  0.35346423  0.07632015  0.47252038    -0.15200
F277        F  0.45663004  0.10995763  0.64440533    -0.15200
F278        F  0.42327300  0.13733397  0.67102874    -0.12900
C279        C  0.37869927  0.29556437  0.61042320     0.25100
C280        C  0.39346382  0.27961355  0.58910375    -0.23000
C281        C  0.42273106  0.29591972  0.55689755     0.20000
C282        C  0.43666004  0.32735570  0.54360867     0.25100
C283        C  0.42134846  0.34339947  0.56083753    -0.22900
C284        C  0.39232077  0.32701581  0.59615829     0.20000
F285        F  0.37662120  0.34114041  0.61530205    -0.12900
F286        F  0.35030740  0.28030603  0.64119742    -0.15200
F287        F  0.46484244  0.34174832  0.51140064    -0.15200
F288        F  0.43763902  0.28109564  0.53677666    -0.12900
C289        C  0.17748017  0.11097815  0.51188269     0.25100
C290        C  0.15924987  0.08170387  0.54406489    -0.23000
C291        C  0.17337728  0.07027591  0.59304300     0.20000
C292        C  0.20479561  0.08720475  0.60733748     0.25100
C293        C  0.22296463  0.11560291  0.57186826    -0.22900
C294        C  0.20895699  0.12739321  0.52459026     0.20000
F295        F  0.22595979  0.15488686  0.49005113    -0.12900
F296        F  0.16513751  0.12349280  0.46584817    -0.15200
F297        F  0.21775516  0.07516446  0.65280662    -0.15200
F298        F  0.15689172  0.04256136  0.62687641    -0.12900
C299        C  0.43648039  0.10806051  0.06590855     0.25100
C300        C  0.41948293  0.07592787  0.07087443    -0.23000
C301        C  0.38840402  0.06206819  0.09147574     0.20000
C302        C  0.37454382  0.07965912  0.10204252     0.25100
C303        C  0.39126047  0.11129860  0.09243599    -0.22900
C304        C  0.42238995  0.12542508  0.07619123     0.20000
F305        F  0.43896183  0.15610540  0.06829279    -0.12900
F306        F  0.46664342  0.12284772  0.04915196    -0.15200
F307        F  0.34439814  0.06572068  0.11849383    -0.15200
F308        F  0.37101691  0.03141229  0.09898986    -0.12900
C309        C  0.42909971  0.32594856  0.10494057     0.25100
C310        C  0.42038443  0.34098784  0.05132278    -0.23000
C311        C  0.39370162  0.32333522  0.00774442     0.20000
C312        C  0.37697523  0.29157526  0.01536707     0.25100
C313        C  0.38604861  0.27654772  0.06778328    -0.22900
C314        C  0.41203676  0.29418352  0.11339006     0.20000
F315        F  0.42170582  0.28056547  0.16412073    -0.12900
F316        F  0.45419466  0.34194183  0.14943552    -0.15200
F317        F  0.35167748  0.27549834  0.97161900    -0.15200
F318        F  0.38420170  0.33664562  0.95549601    -0.12900
C319        C  0.20356446  0.11656000  0.13391253     0.25100
C320        C  0.22008253  0.10618940  0.09090612    -0.23000
C321        C  0.20419033  0.08030697  0.04411540     0.20000
C322        C  0.17267267  0.06618226  0.03624777     0.25100
C323        C  0.15619052  0.07796183  0.07411356    -0.22900
C324        C  0.17190130  0.10275850  0.12506258     0.20000
F325        F  0.15671408  0.11380932  0.16579343    -0.12900
F326        F  0.21824832  0.14093850  0.18156926    -0.15200
F327        F  0.15859320  0.04174677  0.98839013    -0.15200
F328        F  0.21938185  0.06885231  0.00507762    -0.12900
C329        C  0.31228626  0.13697480  0.79252401     0.25100
C330        C  0.33496286  0.16276280  0.75290841    -0.23000
C331        C  0.36090929  0.18278521  0.79620711     0.20000
C332        C  0.36037671  0.18159784  0.87723286     0.25100
C333        C  0.33383003  0.16055884  0.91729872    -0.22900
C334        C  0.31172070  0.13587593  0.87370091     0.20000
F335        F  0.29163294  0.10933948  0.90846292    -0.12900
F336        F  0.29225551  0.11163782  0.75322845    -0.15200
F337        F  0.38642707  0.20003753  0.91621562    -0.15200
F338        F  0.38754713  0.20212851  0.76055164    -0.12900
C339        C  0.32906577  0.18847646  0.29477351     0.25100
C340        C  0.33099186  0.16560580  0.25324645    -0.23000
C341        C  0.32556977  0.13970456  0.29550312     0.20000
C342        C  0.32623796  0.14028556  0.37630153     0.25100
C343        C  0.33344198  0.16715136  0.41716774    -0.22900
C344        C  0.33076811  0.18952250  0.37567411     0.20000
F345        F  0.32617492  0.21034632  0.41294652    -0.12900
F346        F  0.32155812  0.20740555  0.25876542    -0.15200
F347        F  0.31724878  0.11373948  0.41419237    -0.15200
F348        F  0.31738443  0.11301884  0.25904599    -0.12900
C349        C  0.33245344  0.66371594  0.17041506     0.31500
C350        C  0.33139812  0.66178931  0.01145695     0.31500
C351        C  0.34914378  0.64870199  0.13167535    -0.04700
C352        C  0.30073947  0.64677299  0.13307338    -0.05500
C353        C  0.34765166  0.69498920  0.12873336    -0.05300
C354        C  0.34824677  0.64778390  0.05111578    -0.04700
C355        C  0.30012411  0.64591409  0.05235683    -0.05400
C356        C  0.34617515  0.69378350  0.04813165    -0.05300
C357        C  0.36431707  0.63433177  0.02618517    -0.30700
N358        N  0.37506443  0.62691644  0.08897573     0.15800
C359        C  0.36636926  0.63581745  0.15373998    -0.30700
H360        H  0.37243286  0.63327582  0.21206967     0.17700
C361        C  0.26995260  0.63238031  0.03121424    -0.29700
N362        N  0.25243793  0.62410233  0.09597887     0.14500
C363        C  0.27094530  0.63309009  0.15881402    -0.29700
C364        C  0.35973779  0.72335650  0.02172868    -0.30000
N365        N  0.37082149  0.74265564  0.08301675     0.15000
H366        H  0.36208112  0.73042576  0.96190928     0.17600
C367        C  0.36402148  0.72557118  0.14846883    -0.29800
H368        H  0.37055968  0.73482708  0.20621725     0.17600
H369        H  0.26333563  0.63008194  0.21838807     0.17600
H370        H  0.36774026  0.62994500  0.96668905     0.17700
H371        H  0.26108993  0.62946022  0.97302718     0.17600
C372        C  0.33490391  0.66616742  0.51152275     0.31500
C373        C  0.33303388  0.66441342  0.67032296     0.31500
C374        C  0.35085806  0.65083838  0.55050526    -0.04700
C375        C  0.35048034  0.69745491  0.55259601    -0.05500
C376        C  0.30322074  0.64975894  0.54818773    -0.05300
C377        C  0.34966483  0.64960580  0.63093012    -0.04700
C378        C  0.34882959  0.69677423  0.63345777    -0.05400
C379        C  0.30171968  0.64909883  0.62862390    -0.05300
C380        C  0.36473676  0.63461292  0.65417850    -0.30700
N381        N  0.37492501  0.62692741  0.58989971     0.15800
C382        C  0.36717576  0.63734762  0.52688469    -0.30700
H383        H  0.37310567  0.63512225  0.46794455     0.17700
C384        C  0.36246545  0.72696045  0.65774327    -0.29700
N385        N  0.37356490  0.74542965  0.59464397     0.14500
C386        C  0.36694363  0.72767842  0.53079943    -0.29700
C387        C  0.27086607  0.63469501  0.64706769    -0.30000
N388        N  0.25439050  0.62555179  0.58040924     0.15000
H389        H  0.26098015  0.63090380  0.70436260     0.17600
C390        C  0.27401343  0.63480066  0.51991113    -0.30000
H391        H  0.26744091  0.63096393  0.45954205     0.17600
H392        H  0.37361674  0.73639046  0.47260543     0.17600
H393        H  0.36756531  0.62922972  0.71300352     0.17700
H394        H  0.36425556  0.73494617  0.71668458     0.17600
C395        C  0.16586617  0.83461715  0.99215367     0.31500
C396        C  0.16545227  0.83426786  0.83322987     0.31500
C397        C  0.15027626  0.85016462  0.95375536    -0.04700
C398        C  0.19736245  0.84989800  0.95261485    -0.05500
C399        C  0.15049089  0.80310319  0.95341810    -0.05300
C400        C  0.15049375  0.85085442  0.87325799    -0.04700
C401        C  0.19742064  0.85039402  0.87169066    -0.05400
C402        C  0.14963938  0.80278048  0.87290599    -0.05300
C403        C  0.13695671  0.86767016  0.85253644    -0.30700
N404        N  0.12734935  0.87533459  0.91784138     0.15800
C405        C  0.13552083  0.86487850  0.97988209    -0.30700
H406        H  0.13124152  0.86801508  0.03970956     0.17700
C407        C  0.22778094  0.86552326  0.84893780    -0.29700
N408        N  0.24549677  0.87266807  0.91304852     0.14500
C409        C  0.22721395  0.86299761  0.97626823    -0.29700
C410        C  0.13532433  0.77252367  0.85019605    -0.30000
N411        N  0.12834115  0.75480976  0.91469253     0.15000
H412        H  0.13095723  0.76411375  0.79130034     0.17600
C413        C  0.13816415  0.77339621  0.97740425    -0.30000
H414        H  0.13633768  0.76565575  0.03650923     0.17600
H415        H  0.23526346  0.86515633  0.03509505     0.17600
H416        H  0.13409948  0.87384206  0.79460581     0.17700
H417        H  0.23652716  0.87122010  0.79043906     0.17600
C418        C  0.16538255  0.83566881  0.33282126     0.31500
C419        C  0.16489364  0.83625470  0.49177494     0.31500
C420        C  0.14792057  0.84964774  0.37072278    -0.04700
C421        C  0.15152888  0.80427628  0.37280641    -0.05500
C422        C  0.19693804  0.85311988  0.37241860    -0.05300
C423        C  0.14809684  0.85055777  0.45138996    -0.04700
C424        C  0.15125085  0.80487704  0.45338321    -0.05400
C425        C  0.19644796  0.85413681  0.45305723    -0.05300
C426        C  0.13508464  0.86765869  0.47237627    -0.30700
N427        N  0.12554692  0.87535132  0.40752220     0.15800
C428        C  0.13332715  0.86459604  0.34490193    -0.30700
H429        H  0.12962737  0.86833881  0.28529500     0.17700
C430        C  0.13860931  0.77536392  0.47922944    -0.29700
N431        N  0.13112789  0.75675099  0.41687963     0.14500
C432        C  0.13920848  0.77402335  0.35165806    -0.29700
C433        C  0.22616833  0.87091797  0.47736835    -0.30000
N434        N  0.24488321  0.87835286  0.41494146     0.15000
H435        H  0.23374960  0.87690564  0.53653190     0.17600
C436        C  0.22728776  0.86738756  0.35061961    -0.30000
H437        H  0.23599076  0.86864350  0.29264073     0.17600
H438        H  0.13651566  0.76509308  0.29352365     0.17600
H439        H  0.13313793  0.87465162  0.53033455     0.17700
H440        H  0.13488534  0.76789157  0.53899078     0.17600
O441        O  0.03795666  0.98797328  0.06154656    -0.86800
C442        C  0.04659853  0.54602152  0.88802988     0.89200
Mg443      Mg  0.00477582  0.94015595  0.05808394     1.58100
O444        O  0.01205640  0.55273068  0.05717385    -0.86500
O445        O  0.05080859  0.52684819  0.13523893    -0.73900
C446        C  0.37508944  0.93220243  0.96003100     0.94300
O447        O  0.02699864  0.97532060  0.87886444    -0.73700
O448        O  0.38859400  0.91696623  0.95319627    -0.81200
Mg449      Mg  0.06523796  0.50592075  0.95830940     1.58000
C450        C  0.43459228  0.55805477  0.03616991     0.94200
O451        O  0.10871516  0.53843433  0.02640442    -0.79500
H452        H  0.01267119  0.55946074  0.17136266    -0.04800
C453        C  0.45472978  0.99997628  0.88994226     0.89100
O454        O  0.47125172  0.94492444  0.13771025    -0.74000
O455        O  0.05142799  0.53944303  0.95332267    -0.86700
O456        O  0.46218936  0.57158161  0.01313514    -0.79500
C457        C  0.05859934  0.62485980  0.96124583     0.94300
C458        C  0.12303843  0.56558255  0.05256762     0.94200
Mg459      Mg  0.43241524  0.99222961  0.05599448     1.58000
O460        O  0.38903652  0.95947658  0.98591241    -0.79500
O461        O  0.47173312  0.52502908  0.12445200    -0.73700
O462        O  0.07149361  0.61080956  0.98809036    -0.79500
O463        O  0.08023103  0.97125064  0.95951522    -0.81300
O464        O  0.42724335  0.88741973  0.02156603    -0.79600
C465        C  0.49924347  0.54624608  0.11770099     0.88600
O466        O  0.44623392  0.95860394  0.06038740    -0.86700
O467        O  0.46267101  0.51346110  0.94196829    -0.86800
O468        O  0.44788385  0.97251380  0.87944974    -0.73900
Mg469      Mg  0.05950863  0.56675955  0.05598955     1.58000
O470        O  0.02985761  0.61142588  0.95209409    -0.81300
H471        H  0.04094512  0.98663505  0.17676238    -0.05000
O472        O  0.48665301  0.94632174  0.95681543    -0.86500
H473        H  0.48662475  0.94067989  0.84224562    -0.04800
H474        H  0.43758854  0.95235637  0.17404148    -0.05000
C475        C  0.99973543  0.95399978  0.88835783     0.88600
C476        C  0.04397511  0.49934693  0.12583859     0.89200
C477        C  0.45079986  0.95172000  0.12555412     0.89200
H478        H  0.46005468  0.51578334  0.82686250    -0.05000
O479        O  0.02618931  0.55290217  0.87604119    -0.74000
Mg480      Mg  0.43914012  0.93203551  0.95676729     1.58000
H481        H  0.05951329  0.54502779  0.83935284    -0.05000
C482        C  0.06535254  0.94247308  0.96742752     0.94200
O483        O  0.46878508  0.88709352  0.05995095    -0.81200
C484        C  0.44021182  0.87339301  0.04805389     0.94200
O485        O  0.11003649  0.58130717  0.05932717    -0.81200
Mg486      Mg  0.49586166  0.56131428  0.94868107     1.58200
O487        O  0.03813696  0.92886933  0.99356085    -0.79500
O488        O  0.41892582  0.52916682  0.04058012    -0.81200
O489        O  0.48887810  0.54067012  0.43564029    -0.86800
C490        C  0.04743180  0.54821562  0.60485068     0.89200
Mg491      Mg  0.44117312  0.50703914  0.43932925     1.58100
O492        O  0.05149153  0.51374585  0.43154715    -0.86500
O493        O  0.02782392  0.55538488  0.35993311    -0.73900
C494        C  0.43232586  0.87500412  0.54006082     0.94300
O495        O  0.47667537  0.52777908  0.61712143    -0.73700
O496        O  0.41721681  0.88872549  0.54557884    -0.81200
Mg497      Mg  0.00766484  0.56817370  0.53854336     1.58000
C498        C  0.05899042  0.93790699  0.44346960     0.94200
O499        O  0.04105174  0.61291142  0.47176082    -0.79500
H500        H  0.05532621  0.51446504  0.31614776    -0.04800
C501        C  0.50000148  0.95517133  0.60768352     0.89100
O502        O  0.44804444  0.97301715  0.35761858    -0.74000
O503        O  0.04084996  0.55386403  0.54058792    -0.86700
O504        O  0.07251991  0.96535082  0.46759440    -0.79500
C505        C  0.12498989  0.55775677  0.52556226     0.94300
C506        C  0.06893748  0.62655314  0.45027725     0.94200
Mg507      Mg  0.49228889  0.93244468  0.44219578     1.58000
O508        O  0.45952883  0.88870692  0.51342052    -0.79500
O509        O  0.02447553  0.97535912  0.36013195    -0.73700
O510        O  0.11190041  0.57228368  0.50355836    -0.79500
O511        O  0.47170353  0.58179205  0.54281840    -0.81300
O512        O  0.38834613  0.92819793  0.47436332    -0.79600
C513        C  0.04570467  0.00288676  0.36720428     0.88600
O514        O  0.45890417  0.94611970  0.43646735    -0.86700
O515        O  0.01374037  0.96411743  0.54117374    -0.86800
O516        O  0.47255769  0.94826808  0.61813452    -0.73900
Mg517      Mg  0.06755119  0.56188204  0.43737612     1.58000
O518        O  0.11038786  0.52887082  0.53115569    -0.81300
H519        H  0.48696707  0.54655111  0.32171660    -0.05000
O520        O  0.44742835  0.98731357  0.53840308    -0.86500
H521        H  0.44048422  0.98660605  0.65257806    -0.04800
H522        H  0.45419111  0.93845511  0.32238552    -0.05000
C523        C  0.45554610  0.50041430  0.60760817     0.88600
C524        C  0.00029972  0.54817331  0.37102716     0.89200
C525        C  0.45332470  0.95156043  0.37068035     0.89200
H526        H  0.01659390  0.95879285  0.65497289    -0.05000
O527        O  0.05338575  0.52702204  0.61441533    -0.74000
Mg528      Mg  0.43250372  0.93958777  0.53987918     1.58000
H529        H  0.04724555  0.56106047  0.65461173    -0.05000
C530        C  0.44289625  0.56628396  0.53517087     0.94200
O531        O  0.38980313  0.97019216  0.43123928    -0.81200
C532        C  0.37530530  0.94173321  0.44523181     0.94200
O533        O  0.08350179  0.61242152  0.44220731    -0.81200
Mg534      Mg  0.06163241  0.99789782  0.53509646     1.58200
O535        O  0.42984408  0.53938252  0.50727698    -0.79500
O536        O  0.03012053  0.92231978  0.43845808    -0.81200
C537        C  0.07018451  0.67455478  0.40714630     0.25100
C538        C  0.08531461  0.66005165  0.43720503    -0.23000
C539        C  0.11620115  0.67811396  0.45798378     0.20000
C540        C  0.13126685  0.70985451  0.45055827     0.25100
C541        C  0.11613835  0.72412158  0.42024740    -0.22900
C542        C  0.08562746  0.70628147  0.39781490     0.20000
F543        F  0.07056191  0.71981057  0.36939300    -0.12900
F544        F  0.04048107  0.65803290  0.38660578    -0.15200
F545        F  0.16063298  0.72683432  0.47357823    -0.15200
F546        F  0.13150292  0.66519250  0.48874156    -0.12900
C547        C  0.32323344  0.90064314  0.48401324     0.25100
C548        C  0.34189614  0.92406847  0.43225939    -0.23000
C549        C  0.32805850  0.93139111  0.37203947     0.20000
C550        C  0.29622608  0.91586131  0.36471414     0.25100
C551        C  0.27764810  0.89312158  0.41830946    -0.22900
C552        C  0.29161263  0.88544463  0.47717359     0.20000
F553        F  0.27457509  0.86294027  0.52828493    -0.12900
F554        F  0.33551937  0.89324794  0.54380678    -0.15200
F555        F  0.28357230  0.92381580  0.30700666    -0.15200
F556        F  0.34531696  0.95356360  0.32029382    -0.12900
C557        C  0.12446008  0.92208667  0.43601733     0.25100
C558        C  0.11013005  0.89241631  0.40655267    -0.23000
C559        C  0.07987361  0.87880296  0.38181750     0.20000
C560        C  0.06353376  0.89401142  0.39064138     0.25100
C561        C  0.07731403  0.92331675  0.42426040    -0.22900
C562        C  0.10842745  0.93759322  0.44409229     0.20000
F563        F  0.12324587  0.96615770  0.47398592    -0.12900
F564        F  0.15398904  0.93580854  0.45823079    -0.15200
F565        F  0.03402267  0.87964167  0.36789600    -0.15200
F566        F  0.06569376  0.85009516  0.35289854    -0.12900
C567        C  0.10565219  0.67595117  0.98134404     0.25100
C568        C  0.07764726  0.65804464  0.94335337    -0.23000
C569        C  0.06774880  0.67254693  0.89107467     0.20000
C570        C  0.08506737  0.70414680  0.87875849     0.25100
C571        C  0.11249317  0.72197095  0.91879490    -0.22900
C572        C  0.12272480  0.70741004  0.96933084     0.20000
F573        F  0.14928628  0.72382846  0.00812830    -0.12900
F574        F  0.11605712  0.66330338  0.03307784    -0.15200
F575        F  0.07424114  0.71754821  0.83076479    -0.15200
F576        F  0.04117009  0.65623837  0.85224563    -0.12900
C577        C  0.32557064  0.93247024  0.95841394     0.25100
C578        C  0.34196345  0.91761490  0.94041975    -0.23000
C579        C  0.32581839  0.88814811  0.90739253     0.20000
C580        C  0.29427891  0.87388936  0.89503068     0.25100
C581        C  0.27819597  0.88854867  0.91574197    -0.22900
C582        C  0.29412669  0.91797203  0.94665363     0.20000
F583        F  0.27891675  0.93245807  0.96702481    -0.12900
F584        F  0.33964218  0.96074246  0.99003689    -0.15200
F585        F  0.27914141  0.84518854  0.86610738    -0.15200
F586        F  0.34026014  0.87270782  0.88863744    -0.12900
C587        C  0.12522308  0.92241615  0.90417536     0.25100
C588        C  0.11086274  0.89139013  0.92206858    -0.23000
C589        C  0.08083594  0.87663829  0.94958517     0.20000
C590        C  0.06564028  0.89285700  0.96171437     0.25100
C591        C  0.08042014  0.92449623  0.94759421    -0.22900
C592        C  0.11028742  0.93888481  0.91677576     0.20000
F593        F  0.12543427  0.96904264  0.89989792    -0.12900
F594        F  0.15425771  0.93701249  0.87745305    -0.15200
F595        F  0.03663838  0.87752399  0.98869555    -0.15200
F596        F  0.06630724  0.84640293  0.96524084    -0.12900
C597        C  0.18525394  0.82918790  0.62042285     0.25100
C598        C  0.16404907  0.83419110  0.58033135    -0.23000
C599        C  0.13862253  0.83011686  0.62311983     0.20000
C600        C  0.13860075  0.82912097  0.70408733     0.25100
C601        C  0.16405494  0.83236395  0.74465046    -0.22900
C602        C  0.18520948  0.82821526  0.70139168     0.20000
F603        F  0.20408396  0.82043747  0.73656451    -0.12900
F604        F  0.20451207  0.82272444  0.58152409    -0.15200
F605        F  0.11247323  0.82204350  0.74191769    -0.15200
F606        F  0.11246273  0.82384362  0.58722710    -0.12900
C607        C  0.13927897  0.81404660  0.12236480     0.25100
C608        C  0.16489535  0.83576120  0.08049508    -0.23000
C609        C  0.18605427  0.86189309  0.12149529     0.20000
C610        C  0.18583298  0.86227362  0.20241276     0.25100
C611        C  0.16464979  0.83639287  0.24446254    -0.22900
C612        C  0.13927504  0.81419926  0.20324664     0.20000
F613        F  0.11334091  0.79420270  0.24066039    -0.12900
F614        F  0.11309734  0.79436692  0.08568202    -0.15200
F615        F  0.20447864  0.88896048  0.23871298    -0.15200
F616        F  0.20523121  0.88807888  0.08377984    -0.12900
C617        C  0.37797562  0.58314859  0.54015936     0.25100
C618        C  0.39008475  0.60948177  0.58614895    -0.23000
C619        C  0.41847058  0.62003579  0.62125275     0.20000
C620        C  0.43547006  0.60576718  0.60610155     0.25100
C621        C  0.42400523  0.58011104  0.55687671    -0.22900
C622        C  0.39450886  0.56842731  0.52622826     0.20000
F623        F  0.38199823  0.54345516  0.47990728    -0.12900
F624        F  0.35012800  0.57195684  0.50759316    -0.15200
F625        F  0.46332434  0.61737068  0.63889754    -0.15200
F626        F  0.43036260  0.64507516  0.66715709    -0.12900
C627        C  0.37210106  0.79325091  0.59505055     0.25100
C628        C  0.38885528  0.77825094  0.59276009    -0.23000
C629        C  0.42019623  0.79537242  0.57810044     0.20000
C630        C  0.43450567  0.82680786  0.56372110     0.25100
C631        C  0.41764577  0.84198112  0.56286047    -0.22900
C632        C  0.38623584  0.82470492  0.58064625     0.20000
F633        F  0.36875596  0.83786477  0.58124895    -0.12900
F634        F  0.34164304  0.77704739  0.60740349    -0.15200
F635        F  0.46483370  0.84215173  0.54905966    -0.15200
F636        F  0.43682524  0.78132701  0.57564931    -0.12900
C637        C  0.17211116  0.60416732  0.57673085     0.25100
C638        C  0.15821984  0.57481592  0.54370409    -0.23000
C639        C  0.17659697  0.56206359  0.52677437     0.20000
C640        C  0.20800830  0.57850234  0.54084943     0.25100
C641        C  0.22176130  0.60781153  0.57316112    -0.22900
C642        C  0.20352542  0.62035996  0.59187000     0.20000
F643        F  0.21639824  0.64876429  0.62231473    -0.12900
F644        F  0.15523909  0.61713582  0.59486453    -0.15200
F645        F  0.22521997  0.56593106  0.52236084    -0.15200
F646        F  0.16440980  0.53413567  0.49360337    -0.12900
C647        C  0.43434579  0.60748403  0.03494628     0.25100
C648        C  0.42026087  0.57653337  0.05647273    -0.23000
C649        C  0.39191854  0.56339593  0.09517919     0.20000
C650        C  0.37781097  0.58052500  0.10960178     0.25100
C651        C  0.39154540  0.61091305  0.08545156    -0.22900
C652        C  0.42000010  0.62432654  0.04899079     0.20000
F653        F  0.43355280  0.65371176  0.02528968    -0.12900
F654        F  0.46149018  0.62131251  0.99735778    -0.15200
F655        F  0.34993961  0.56702354  0.14345646    -0.15200
F656        F  0.37746808  0.53383173  0.11787481    -0.12900
C657        C  0.43023341  0.82500770  0.11556129     0.25100
C658        C  0.42154007  0.83989869  0.06138042    -0.23000
C659        C  0.39528725  0.82216574  0.01668642     0.20000
C660        C  0.37854516  0.79049738  0.02475142     0.25100
C661        C  0.38736562  0.77553973  0.07812127    -0.22900
C662        C  0.41318749  0.79323070  0.12427115     0.20000
F663        F  0.42267215  0.77969282  0.17578287    -0.12900
F664        F  0.45526431  0.84114474  0.16020093    -0.15200
F665        F  0.35344601  0.77444826  0.98034484    -0.15200
F666        F  0.38631534  0.83532854  0.96263397    -0.12900
C667        C  0.20349871  0.62150703  0.12358261     0.25100
C668        C  0.21972550  0.60791024  0.09560891    -0.23000
C669        C  0.20382263  0.57933868  0.05986482     0.20000
C670        C  0.17237850  0.56507161  0.04882171     0.25100
C671        C  0.15600210  0.57936577  0.07241465    -0.22900
C672        C  0.17196718  0.60752485  0.11174513     0.20000
F673        F  0.15728282  0.62191239  0.13752330    -0.12900
F674        F  0.21847043  0.64905128  0.15891030    -0.15200
F675        F  0.15832809  0.53773752  0.01219311    -0.15200
F676        F  0.21905349  0.56549085  0.03422662    -0.12900
C677        C  0.31084629  0.63653254  0.79888851     0.25100
C678        C  0.33327882  0.66230964  0.75875152    -0.23000
C679        C  0.35930925  0.68256794  0.80141420     0.20000
C680        C  0.35910956  0.68143537  0.88234737     0.25100
C681        C  0.33264576  0.66054545  0.92291688    -0.22900
C682        C  0.31044520  0.63571888  0.87997090     0.20000
F683        F  0.29040838  0.60930529  0.91538571    -0.12900
F684        F  0.29121202  0.61080311  0.76038188    -0.15200
F685        F  0.38548400  0.69945086  0.92056362    -0.15200
F686        F  0.38575940  0.70200769  0.76509535    -0.12900
C687        C  0.32805771  0.68582086  0.30023121     0.25100
C688        C  0.33130782  0.66368580  0.25891866    -0.23000
C689        C  0.32729112  0.63831786  0.30142540     0.20000
C690        C  0.32798115  0.63900549  0.38229074     0.25100
C691        C  0.33333866  0.66531900  0.42304623    -0.22900
C692        C  0.32926513  0.68676088  0.38113603     0.20000
F693        F  0.32296431  0.70652302  0.41789779    -0.12900
F694        F  0.32038096  0.70450167  0.26349473    -0.15200
F695        F  0.32043864  0.61282134  0.42031263    -0.15200
F696        F  0.31996762  0.61177925  0.26543330    -0.12900
C697        C  0.83261572  0.16544440  0.17402848     0.31500
C698        C  0.83040535  0.16361154  0.01522525     0.31500
C699        C  0.84962835  0.15111870  0.13370558    -0.04700
C700        C  0.80066427  0.14792423  0.13824961    -0.05500
C701        C  0.84687301  0.19674481  0.13264681    -0.05300
C702        C  0.84817155  0.15019461  0.05329139    -0.04700
C703        C  0.79941253  0.14712235  0.05760365    -0.05400
C704        C  0.84477804  0.19557565  0.05211252    -0.05300
C705        C  0.86456865  0.13718580  0.02713762    -0.30700
N706        N  0.87603717  0.13007679  0.08913124     0.15800
C707        C  0.86746382  0.13877008  0.15447340    -0.30700
H708        H  0.87398504  0.13640676  0.21243373     0.17700
C709        C  0.76899861  0.13294409  0.03830104    -0.29700
N710        N  0.75199900  0.12409422  0.10403846     0.14500
C711        C  0.77107682  0.13348652  0.16573912    -0.29700
C712        C  0.85770438  0.22516270  0.02597365    -0.30000
N713        N  0.86908786  0.24442799  0.08727076     0.15000
H714        H  0.85957500  0.23228727  0.96628886     0.17600
C715        C  0.86303999  0.22733162  0.15247469    -0.29800
H716        H  0.87010105  0.23658855  0.21006077     0.17600
H717        H  0.76399030  0.13014716  0.22576839     0.17600
H718        H  0.86762297  0.13280078  0.96735355     0.17700
H719        H  0.75958852  0.12992592  0.98072352     0.17600
C720        C  0.83540488  0.16617589  0.51503083     0.31500
C721        C  0.83257382  0.16509272  0.67370489     0.31500
C722        C  0.85018104  0.14997259  0.55585150    -0.04700
C723        C  0.85165822  0.19758877  0.55539823    -0.05500
C724        C  0.80348731  0.15074866  0.55054476    -0.05300
C725        C  0.84841578  0.14909073  0.63635944    -0.04700
C726        C  0.84941625  0.19728811  0.63597795    -0.05400
C727        C  0.80156910  0.15042963  0.63092475    -0.05300
C728        C  0.86289821  0.13382863  0.66195598    -0.30700
N729        N  0.87349431  0.12582010  0.59917226     0.15800
C730        C  0.86651267  0.13614917  0.53466787    -0.30700
H731        H  0.87343026  0.13412133  0.47666963     0.17700
C732        C  0.86284767  0.22761234  0.65913110    -0.29700
N733        N  0.87457390  0.24580744  0.59572694     0.14500
C734        C  0.86838941  0.22770820  0.53271534    -0.29700
C735        C  0.77069721  0.13638748  0.64841734    -0.30000
N736        N  0.75453839  0.12717637  0.58134820     0.15000
H737        H  0.76056007  0.13273913  0.70537024     0.17600
C738        C  0.77439163  0.13594678  0.52140320    -0.30000
H739        H  0.76805746  0.13167118  0.46092812     0.17600
H740        H  0.87512550  0.23608386  0.47427228     0.17600
H741        H  0.86580762  0.12923026  0.72146281     0.17700
H742        H  0.86386338  0.23586500  0.71748222     0.17600
C743        C  0.66617353  0.33450437  0.99677553     0.31500
C744        C  0.66465220  0.33290908  0.83785642     0.31500
C745        C  0.64987256  0.34928803  0.95824866    -0.04700
C746        C  0.69738486  0.35007432  0.95602767    -0.05500
C747        C  0.65111360  0.30272519  0.95943006    -0.05300
C748        C  0.64913589  0.34899484  0.87767958    -0.04700
C749        C  0.69689561  0.35002757  0.87510282    -0.05400
C750        C  0.64974986  0.30176954  0.87900702    -0.05300
C751        C  0.63504128  0.36526751  0.85680111    -0.30700
N752        N  0.62678640  0.37424559  0.92222660     0.15800
C753        C  0.63602014  0.36486430  0.98433378    -0.30700
H754        H  0.63320619  0.36944713  0.04413944     0.17700
C755        C  0.72713585  0.36551518  0.85116507    -0.29700
N756        N  0.74529225  0.37334146  0.91459826     0.14500
C757        C  0.72740228  0.36370765  0.97849597    -0.29700
C758        C  0.63536250  0.27135509  0.85781311    -0.30000
N759        N  0.62877088  0.25413098  0.92314081     0.15000
H760        H  0.63050060  0.26250066  0.79935439     0.17600
C761        C  0.63891144  0.27320895  0.98489574    -0.30000
H762        H  0.63717991  0.26593810  0.04442625     0.17600
H763        H  0.73586292  0.36613110  0.03695187     0.17600
H764        H  0.63175132  0.37100315  0.79877765     0.17700
H765        H  0.73549284  0.37092263  0.79228172     0.17600
C766        C  0.66588945  0.33438032  0.33737988     0.31500
C767        C  0.66437835  0.33382160  0.49639203     0.31500
C768        C  0.64823321  0.34808975  0.37534479    -0.04700
C769        C  0.65175726  0.30276054  0.37586468    -0.05500
C770        C  0.69716892  0.35134602  0.37826510    -0.05300
C771        C  0.64780847  0.34838601  0.45600169    -0.04700
C772        C  0.65097070  0.30271370  0.45648639    -0.05400
C773        C  0.69623343  0.35195637  0.45905634    -0.05300
C774        C  0.63395077  0.36470904  0.47701948    -0.30700
N775        N  0.62466412  0.37260184  0.41200766     0.15800
C776        C  0.63333580  0.36269834  0.34940758    -0.30700
H777        H  0.62996186  0.36674143  0.28978385     0.17700
C778        C  0.63815041  0.27297934  0.48058270    -0.29700
N779        N  0.63104356  0.25493397  0.41712047     0.14500
C780        C  0.63953739  0.27275467  0.35292422    -0.29700
C781        C  0.72589445  0.36890809  0.48441769    -0.30000
N782        N  0.74468994  0.37664310  0.42232213     0.15000
H783        H  0.73346936  0.37476400  0.54364540     0.17600
C784        C  0.72758363  0.36565194  0.35745767    -0.30000
H785        H  0.73678205  0.36785639  0.29968639     0.17600
H786        H  0.63718326  0.26436841  0.29427610     0.17600
H787        H  0.63126258  0.37105393  0.53510604     0.17700
H788        H  0.63403536  0.26496638  0.53988891     0.17600
O789        O  0.53773646  0.48692419  0.06017995    -0.86800
C790        C  0.54763245  0.04594777  0.89665749     0.89200
Mg791      Mg  0.50439360  0.43889526  0.05376589     1.58100
O792        O  0.51179812  0.05141345  0.06461407    -0.86500
O793        O  0.54964702  0.02479829  0.14314040    -0.73900
C794        C  0.87512884  0.43363089  0.95731207     0.94300
O795        O  0.52848859  0.47530087  0.87756376    -0.73700
O796        O  0.88856201  0.41833122  0.95044989    -0.81200
Mg797      Mg  0.56559656  0.00551540  0.96659237     1.58000
C798        C  0.93594768  0.06116343  0.03832491     0.94200
O799        O  0.60825805  0.03705544  0.03799851    -0.79500
H800        H  0.51172626  0.05753959  0.17886361    -0.04800
C801        C  0.95480382  0.50067710  0.88481435     0.89100
O802        O  0.97186849  0.44721491  0.13497792    -0.74000
O803        O  0.55208819  0.03914748  0.96206684    -0.86700
O804        O  0.96328240  0.07430258  0.01326020    -0.79500
C805        C  0.55897789  0.12415118  0.97195877     0.94300
C806        C  0.62252633  0.06400040  0.06535549     0.94200
Mg807      Mg  0.93278416  0.49363345  0.05141944     1.58000
O808        O  0.88919389  0.46092954  0.98275399    -0.79500
O809        O  0.97331599  0.02825199  0.12725955    -0.73700
O810        O  0.57180322  0.11020390  0.99996987    -0.79500
O811        O  0.58116039  0.47142456  0.96299598    -0.81300
O812        O  0.92694637  0.38905254  0.02134044    -0.79600
C813        C  0.00075529  0.04938167  0.11859559     0.88600
O814        O  0.94662363  0.46024091  0.05665813    -0.86700
O815        O  0.96257184  0.01489621  0.94558326    -0.86800
O816        O  0.94811947  0.47321364  0.87536090    -0.73900
Mg817      Mg  0.55923237  0.06552706  0.06597584     1.58000
O818        O  0.53033012  0.11049525  0.96074717    -0.81300
H819        H  0.54081210  0.48487373  0.17521769    -0.05000
O820        O  0.98644943  0.44687676  0.95416369    -0.86500
H821        H  0.98553003  0.43930515  0.84036168    -0.04800
H822        H  0.93833807  0.45494908  0.17056280    -0.05000
C823        C  0.50107603  0.45395695  0.88458690     0.88600
C824        C  0.54274270  0.99734079  0.13228290     0.89200
C825        C  0.95137123  0.45387359  0.12222884     0.89200
H826        H  0.95885211  0.01579849  0.83046552    -0.05000
O827        O  0.52701396  0.05244031  0.88379596    -0.74000
Mg828      Mg  0.93907600  0.43308107  0.95424285     1.58000
H829        H  0.56098768  0.04534206  0.84853327    -0.05000
C830        C  0.56623501  0.44256083  0.96850474     0.94200
O831        O  0.96828975  0.38847171  0.06042842    -0.81200
C832        C  0.93966293  0.37495969  0.04886721     0.94200
O833        O  0.60970800  0.07990418  0.07210770    -0.81200
Mg834      Mg  0.99624332  0.06281897  0.94891501     1.58200
O835        O  0.53840917  0.42820368  0.99013828    -0.79500
O836        O  0.92024538  0.03230141  0.04531526    -0.81200
O837        O  0.98802891  0.04151037  0.43536449    -0.86800
C838        C  0.54661239  0.04766635  0.60428950     0.89200
Mg839      Mg  0.94039743  0.00805745  0.44472697     1.58100
O840        O  0.55211299  0.01249649  0.43385073    -0.86500
O841        O  0.52821498  0.05326734  0.35763352    -0.73900
C842        C  0.93189322  0.37522430  0.53723301     0.94300
O843        O  0.97752669  0.02944577  0.61748080    -0.73700
O844        O  0.91672330  0.38885011  0.54425620    -0.81200
Mg845      Mg  0.50669162  0.06686395  0.53409880     1.58000
C846        C  0.55856088  0.43580995  0.44352145     0.94200
O847        O  0.54020323  0.11133241  0.46686630    -0.79500
H848        H  0.55721208  0.01270266  0.31893252    -0.04800
C849        C  0.00000197  0.45495487  0.60489569     0.89100
O850        O  0.94673611  0.47470391  0.36165084    -0.74000
O851        O  0.54007610  0.05272201  0.53927645    -0.86700
O852        O  0.57227904  0.46339650  0.46653524    -0.79500
C853        C  0.62502900  0.05770769  0.52879327     0.94300
C854        C  0.56822738  0.12484191  0.44674870     0.94200
Mg855      Mg  0.99139029  0.43332848  0.43857165     1.58000
O856        O  0.95894809  0.38909812  0.50944248    -0.79500
O857        O  0.52544856  0.47458225  0.36015473    -0.73700
O858        O  0.61160116  0.07174085  0.50558110    -0.79500
O859        O  0.97258787  0.08371325  0.54341187    -0.81300
O860        O  0.88782958  0.42889215  0.47673997    -0.79600
C861        C  0.54654381  0.50213173  0.36811803     0.88600
O862        O  0.95793382  0.44695147  0.43642998    -0.86700
O863        O  0.51396935  0.46284263  0.54101851    -0.86800
O864        O  0.97259115  0.44779083  0.61729293    -0.73900
Mg865      Mg  0.56747807  0.06045154  0.43752954     1.58000
O866        O  0.61074147  0.02885071  0.53565004    -0.81300
H867        H  0.98480413  0.04562884  0.32106428    -0.05000
O868        O  0.94800663  0.48808073  0.54310195    -0.86500
H869        H  0.94249372  0.48720801  0.65795010    -0.04800
H870        H  0.95220753  0.44019795  0.32214205    -0.05000
C871        C  0.95656183  0.00188325  0.60983748     0.88600
C872        C  0.50067607  0.04625203  0.36702956     0.89200
C873        C  0.95191611  0.45300793  0.37185378     0.89200
H874        H  0.51648271  0.45784482  0.65511767    -0.05000
O875        O  0.55309033  0.02692371  0.61561208    -0.74000
Mg876      Mg  0.93228284  0.43992088  0.54129573     1.58000
H877        H  0.54602988  0.06070272  0.65313546    -0.05000
C878        C  0.94369648  0.06804207  0.54099635     0.94200
O879        O  0.88966134  0.47211543  0.44383778    -0.81200
C880        C  0.87488204  0.44335787  0.45327241     0.94200
O881        O  0.58281994  0.11069419  0.44042122    -0.81200
Mg882      Mg  0.56188967  0.49614298  0.53493238     1.58200
O883        O  0.93015655  0.04077573  0.51546455    -0.79500
O884        O  0.52971679  0.42041749  0.43869608    -0.81200
C885        C  0.57055870  0.17285944  0.39946797     0.25100
C886        C  0.58486135  0.15826483  0.43376822    -0.23000
C887        C  0.61520442  0.17614153  0.45891071     0.20000
C888        C  0.63048522  0.20786787  0.45212663     0.25100
C889        C  0.61609428  0.22231134  0.41853542    -0.22900
C890        C  0.58624841  0.20462066  0.39097843     0.20000
F891        F  0.57200382  0.21830623  0.35846477    -0.12900
F892        F  0.54146558  0.15639842  0.37403800    -0.15200
F893        F  0.65934825  0.22466421  0.47887919    -0.15200
F894        F  0.62966948  0.16302510  0.49337709    -0.12900
C895        C  0.82595934  0.39533152  0.41930048     0.25100
C896        C  0.84141191  0.42640720  0.43990634    -0.23000
C897        C  0.82423120  0.44082462  0.45203013     0.20000
C898        C  0.79249935  0.42441678  0.44567929     0.25100
C899        C  0.77730631  0.39355168  0.42553826    -0.22900
C900        C  0.79419485  0.37915490  0.41168301     0.20000
F901        F  0.77972588  0.34915307  0.39324264    -0.12900
F902        F  0.84155235  0.38058443  0.40643267    -0.15200
F903        F  0.77640841  0.43855476  0.45979654    -0.15200
F904        F  0.83796768  0.47053490  0.47322456    -0.12900
C905        C  0.62350176  0.41926185  0.44004219     0.25100
C906        C  0.60919936  0.38960563  0.41064856    -0.23000
C907        C  0.57908332  0.37611352  0.38477239     0.20000
C908        C  0.56284648  0.39149317  0.39242019     0.25100
C909        C  0.57664979  0.42085515  0.42579479    -0.22900
C910        C  0.60758465  0.43489177  0.44711260     0.20000
F911        F  0.62231985  0.46334289  0.47766371    -0.12900
F912        F  0.65293937  0.43289489  0.46296630    -0.15200
F913        F  0.53345565  0.37728472  0.36867480    -0.15200
F914        F  0.56499568  0.34745863  0.35548721    -0.12900
C915        C  0.60571211  0.17551326  0.99329153     0.25100
C916        C  0.57793315  0.15741038  0.95448266    -0.23000
C917        C  0.56817702  0.17174468  0.90125602     0.20000
C918        C  0.58546105  0.20330589  0.88843433     0.25100
C919        C  0.61276106  0.22130967  0.92880538    -0.22900
C920        C  0.62278845  0.20695660  0.98068794     0.20000
F921        F  0.64919786  0.22353495  0.01999843    -0.12900
F922        F  0.61592225  0.16306555  0.04614739    -0.15200
F923        F  0.57472315  0.21648669  0.83942433    -0.15200
F924        F  0.54177286  0.15529602  0.86182338    -0.12900
C925        C  0.82527688  0.43320882  0.96089802     0.25100
C926        C  0.84194526  0.41907366  0.93858619    -0.23000
C927        C  0.82601948  0.39021595  0.90239498     0.20000
C928        C  0.79440384  0.37575447  0.89116078     0.25100
C929        C  0.77802460  0.38961133  0.91618409    -0.22900
C930        C  0.79375257  0.41848751  0.95035735     0.20000
F931        F  0.77827149  0.43217681  0.97516498    -0.12900
F932        F  0.83914981  0.46087535  0.99584551    -0.15200
F933        F  0.77949708  0.34753036  0.85936587    -0.15200
F934        F  0.84079783  0.37557286  0.87930784    -0.12900
C935        C  0.62815512  0.42192792  0.95447299     0.25100
C936        C  0.61209090  0.39201004  0.92665687    -0.23000
C937        C  0.58104154  0.37894736  0.90965744     0.20000
C938        C  0.56607800  0.39542151  0.92214540     0.25100
C939        C  0.58207370  0.42537318  0.95124512    -0.22900
C940        C  0.61346799  0.43861767  0.96587339     0.20000
F941        F  0.62979129  0.46734273  0.99426195    -0.12900
F942        F  0.65810614  0.43475569  0.97174978    -0.15200
F943        F  0.53601826  0.38215064  0.90545873    -0.15200
F944        F  0.56503491  0.34985418  0.88371412    -0.12900
C945        C  0.68439159  0.32682924  0.62570525     0.25100
C946        C  0.66301943  0.33133015  0.58492983    -0.23000
C947        C  0.63735863  0.32693995  0.62719572     0.20000
C948        C  0.63735638  0.32646604  0.70832095     0.25100
C949        C  0.66299416  0.33034981  0.74930634    -0.22900
C950        C  0.68434810  0.32629702  0.70667470     0.20000
F951        F  0.70360818  0.31922448  0.74261381    -0.12900
F952        F  0.70392966  0.32055678  0.58756071    -0.15200
F953        F  0.61117910  0.31933492  0.74596163    -0.15200
F954        F  0.61111458  0.32002685  0.59070860    -0.12900
C955        C  0.63961643  0.31431311  0.12680747     0.25100
C956        C  0.66540305  0.33581201  0.08513445    -0.23000
C957        C  0.68695381  0.36158489  0.12658559     0.20000
C958        C  0.68689528  0.36153633  0.20758305     0.25100
C959        C  0.66540534  0.33561662  0.24906034    -0.22900
C960        C  0.63972434  0.31404887  0.20761136     0.20000
F961        F  0.61368783  0.29420820  0.24491271    -0.12900
F962        F  0.61331049  0.29505645  0.08994468    -0.15200
F963        F  0.70587250  0.38794469  0.24455474    -0.15200
F964        F  0.70617481  0.38791532  0.08951599    -0.12900
C965        C  0.87607458  0.07902294  0.58271030     0.25100
C966        C  0.89053592  0.11028783  0.59870232    -0.23000
C967        C  0.92228281  0.12697639  0.60340338     0.20000
C968        C  0.93959441  0.11321134  0.58706279     0.25100
C969        C  0.92533574  0.08209628  0.56641283    -0.22900
C970        C  0.89320459  0.06493384  0.56763110     0.20000
F971        F  0.87819733  0.03461848  0.55254173    -0.12900
F972        F  0.84528970  0.06232497  0.57945268    -0.15200
F973        F  0.97034410  0.13078101  0.58890432    -0.15200
F974        F  0.93653376  0.15707197  0.62059162    -0.12900
C975        C  0.87258986  0.29341160  0.59581945     0.25100
C976        C  0.88954817  0.27862709  0.59255268    -0.23000
C977        C  0.92073457  0.29593259  0.57598728     0.20000
C978        C  0.93464475  0.32727159  0.56045958     0.25100
C979        C  0.91754156  0.34219585  0.56024713    -0.22900
C980        C  0.88630698  0.32475573  0.57995422     0.20000
F981        F  0.86858838  0.33764692  0.58130940    -0.12900
F982        F  0.84231656  0.27709482  0.61078506    -0.15200
F983        F  0.96485981  0.34279460  0.54439873    -0.15200
F984        F  0.93764214  0.28218553  0.57336259    -0.12900
C985        C  0.67238769  0.10582339  0.57209029     0.25100
C986        C  0.65832133  0.07535414  0.54637330    -0.23000
C987        C  0.67667286  0.06213779  0.53530711     0.20000
C988        C  0.70812702  0.07904800  0.54846711     0.25100
C989        C  0.72196238  0.10935511  0.57376208    -0.22900
C990        C  0.70386035  0.12253923  0.58603458     0.20000
F991        F  0.71691706  0.15195627  0.60925358    -0.12900
F992        F  0.65567872  0.11944850  0.58411738    -0.15200
F993        F  0.72529362  0.06594614  0.53589536    -0.15200
F994        F  0.66442342  0.03318411  0.50874898    -0.12900
C995        C  0.93447349  0.10996045  0.02902077     0.25100
C996        C  0.92190911  0.08003362  0.05791785    -0.23000
C997        C  0.89526372  0.06815949  0.10360302     0.20000
C998        C  0.88101655  0.08524593  0.11708727     0.25100
C999        C  0.89287076  0.11435897  0.08483560    -0.22900
C1000       C  0.91994003  0.12674604  0.04196039     0.20000
F1001       F  0.93206975  0.15511373  0.01169139    -0.12900
F1002       F  0.96024487  0.12272741  0.98559877    -0.15200
F1003       F  0.85476290  0.07279003  0.15848146    -0.15200
F1004       F  0.88272328  0.03987492  0.13470875    -0.12900
C1005       C  0.92986403  0.32651146  0.11572585     0.25100
C1006       C  0.92054472  0.34157237  0.06379938    -0.23000
C1007       C  0.89315645  0.32404591  0.02284800     0.20000
C1008       C  0.87612152  0.29240863  0.03179321     0.25100
C1009       C  0.88572707  0.27730601  0.08240765    -0.22900
C1010       C  0.91252771  0.29479570  0.12532212     0.20000
F1011       F  0.92269032  0.28106212  0.17422434    -0.12900
F1012       F  0.95585810  0.34240329  0.15710992    -0.15200
F1013       F  0.85003373  0.27649304  0.99081464    -0.15200
F1014       F  0.88326867  0.33731668  0.97153172    -0.12900
C1015       C  0.70239417  0.11842840  0.14169739     0.25100
C1016       C  0.71926158  0.10692448  0.10554383    -0.23000
C1017       C  0.70380848  0.07951656  0.06426284     0.20000
C1018       C  0.67228524  0.06479336  0.05473346     0.25100
C1019       C  0.65536344  0.07745769  0.08549918    -0.22900
C1020       C  0.67073647  0.10397565  0.13138033     0.20000
F1021       F  0.65528754  0.11627487  0.16512999    -0.12900
F1022       F  0.71678738  0.14452161  0.18350967    -0.15200
F1023       F  0.65869593  0.03887177  0.01197917    -0.15200
F1024       F  0.71954134  0.06732649  0.03157940    -0.12900
C1025       C  0.80965722  0.13806312  0.80271325     0.25100
C1026       C  0.83235262  0.16353123  0.76224120    -0.23000
C1027       C  0.85821008  0.18401624  0.80508785     0.20000
C1028       C  0.85771096  0.18341579  0.88599594     0.25100
C1029       C  0.83127923  0.16247886  0.92662233    -0.22900
C1030       C  0.80911386  0.13754227  0.88382091     0.20000
F1031       F  0.78909465  0.11117854  0.91939144    -0.12900
F1032       F  0.78987475  0.11228530  0.76459518    -0.15200
F1033       F  0.88392152  0.20193969  0.92426546    -0.15200
F1034       F  0.88488965  0.20307014  0.76915596    -0.12900
C1035       C  0.82840759  0.18671250  0.30511455     0.25100
C1036       C  0.83202184  0.16510178  0.26247518    -0.23000
C1037       C  0.82862837  0.13969367  0.30368654     0.20000
C1038       C  0.82957966  0.13993885  0.38454177     0.25100
C1039       C  0.83425489  0.16573822  0.42657315    -0.22900
C1040       C  0.82960420  0.18709053  0.38592994     0.20000
F1041       F  0.82291214  0.20633877  0.42399981    -0.12900
F1042       F  0.82032853  0.20534758  0.26979715    -0.15200
F1043       F  0.82253461  0.11363773  0.42116348    -0.15200
F1044       F  0.82149984  0.11342684  0.26648649    -0.12900
C1045       C  0.83332710  0.66628965  0.17104279     0.31500
C1046       C  0.83241148  0.66346469  0.01213718     0.31500
C1047       C  0.85012279  0.65118646  0.13367687    -0.04700
C1048       C  0.80168378  0.64905245  0.13356486    -0.05500
C1049       C  0.84848643  0.69736030  0.12833094    -0.05300
C1050       C  0.84917480  0.64958946  0.05318329    -0.04700
C1051       C  0.80105306  0.64773223  0.05288379    -0.05400
C1052       C  0.84712696  0.69570943  0.04772369    -0.05300
C1053       C  0.86419617  0.63477056  0.03015079    -0.30700
N1054       N  0.87467550  0.62765538  0.09405301     0.15800
C1055       C  0.86668756  0.63783881  0.15758746    -0.30700
H1056       H  0.87223608  0.63528849  0.21646055     0.17700
C1057       C  0.77077484  0.63357473  0.03197621    -0.29700
N1058       N  0.75332478  0.62542134  0.09693170     0.14500
C1059       C  0.77193427  0.63507983  0.15951384    -0.29700
C1060       C  0.86069348  0.72518553  0.02023295    -0.30000
N1061       N  0.87165605  0.74484485  0.08088101     0.15000
H1062       H  0.86311080  0.73192319  0.96012717     0.17600
C1063       C  0.86479955  0.72807071  0.14693916    -0.29800
H1064       H  0.87134984  0.73764922  0.20436632     0.17600
H1065       H  0.76440721  0.63224935  0.21913977     0.17600
H1066       H  0.86698204  0.62916669  0.97130566     0.17700
H1067       H  0.76177504  0.63015043  0.97385086     0.17600
C1068       C  0.83589462  0.66818511  0.51200110     0.31500
C1069       C  0.83461264  0.66652077  0.67090038     0.31500
C1070       C  0.85034214  0.65127108  0.55020629    -0.04700
C1071       C  0.85325991  0.69945747  0.55296420    -0.05500
C1072       C  0.80439782  0.65341602  0.54954432    -0.05300
C1073       C  0.84952175  0.65015475  0.63067926    -0.04700
C1074       C  0.85183575  0.69886469  0.63386458    -0.05400
C1075       C  0.80324335  0.65273468  0.63004283    -0.05300
C1076       C  0.86408296  0.63458602  0.65313780    -0.30700
N1077       N  0.87353728  0.62641751  0.58833750     0.15800
C1078       C  0.86583028  0.63704182  0.52574018    -0.30700
H1079       H  0.87169983  0.63493677  0.46664351     0.17700
C1080       C  0.86641819  0.72911671  0.65795844    -0.29700
N1081       N  0.87808944  0.74750369  0.59486611     0.14500
C1082       C  0.87068922  0.72961660  0.53102646    -0.29700
C1083       C  0.77254350  0.63893456  0.64949455    -0.30000
N1084       N  0.75579929  0.63039139  0.58330982     0.15000
H1085       H  0.76291501  0.63492005  0.70711888     0.17600
C1086       C  0.77507417  0.63923081  0.52215588    -0.30000
H1087       H  0.76817336  0.63517764  0.46203135     0.17600
H1088       H  0.87709642  0.73820609  0.47265305     0.17600
H1089       H  0.86754517  0.62961786  0.71183412     0.17700
H1090       H  0.86814126  0.73721952  0.71675278     0.17600
C1091       C  0.66850200  0.83589227  0.99510412     0.31500
C1092       C  0.66624954  0.83467589  0.83624347     0.31500
C1093       C  0.65154575  0.85027641  0.95791703    -0.04700
C1094       C  0.69954600  0.85207474  0.95332811    -0.05500
C1095       C  0.65374339  0.80421863  0.95716837    -0.05300
C1096       C  0.65041334  0.85015098  0.87736452    -0.04700
C1097       C  0.69858769  0.85223733  0.87245362    -0.05400
C1098       C  0.65206505  0.80352358  0.87679845    -0.05300
C1099       C  0.63584614  0.86609288  0.85785517    -0.30700
N1100       N  0.62769610  0.87470770  0.92407583     0.15800
C1101       C  0.63744485  0.86542947  0.98532527    -0.30700
H1102       H  0.63481117  0.86980258  0.04543528     0.17700
C1103       C  0.72860274  0.86813146  0.84712906    -0.29700
N1104       N  0.74716889  0.87594398  0.90962830     0.14500
C1105       C  0.72975543  0.86591847  0.97431062    -0.29700
C1106       C  0.63756639  0.77325271  0.85470762    -0.30000
N1107       N  0.63113159  0.75578781  0.91942003     0.15000
H1108       H  0.63227786  0.76462561  0.79608388     0.17600
C1109       C  0.64150026  0.77457411  0.98175957    -0.30000
H1110       H  0.63969499  0.76700845  0.04104237     0.17600
H1111       H  0.73866815  0.86811997  0.03218151     0.17600
H1112       H  0.63214517  0.87183883  0.80024609     0.17700
H1113       H  0.73652385  0.87360329  0.78790588     0.17600
C1114       C  0.66755420  0.83596941  0.33627647     0.31500
C1115       C  0.66549367  0.83500953  0.49528726     0.31500
C1116       C  0.64934626  0.84919132  0.37424303    -0.04700
C1117       C  0.65376847  0.80431344  0.37445434    -0.05500
C1118       C  0.69869582  0.85322916  0.37792715    -0.05300
C1119       C  0.64876161  0.84926183  0.45494091    -0.04700
C1120       C  0.65243642  0.80409814  0.45498890    -0.05400
C1121       C  0.69738297  0.85358497  0.45864349    -0.05300
C1122       C  0.63439572  0.86494033  0.47659370    -0.30700
N1123       N  0.62484520  0.87270370  0.41199191     0.15800
C1124       C  0.63388548  0.86334160  0.34890638    -0.30700
H1125       H  0.63036500  0.86743639  0.28945241     0.17700
C1126       C  0.63806367  0.77430037  0.47873154    -0.29700
N1127       N  0.63100269  0.75627537  0.41522374     0.14500
C1128       C  0.64102322  0.77428201  0.35132468    -0.29700
C1129       C  0.72680830  0.87078279  0.48503384    -0.30000
N1130       N  0.74605039  0.87899913  0.42374697     0.15000
H1131       H  0.73393452  0.87631858  0.54464818     0.17600
C1132       C  0.72926677  0.86793070  0.35827817    -0.30000
H1133       H  0.73878592  0.87030905  0.30084751     0.17600
H1134       H  0.63834430  0.76594083  0.29256068     0.17600
H1135       H  0.63151868  0.87096376  0.53487850     0.17700
H1136       H  0.63273523  0.76623563  0.53789564     0.17600
O1137       O  0.53725424  0.98570267  0.06705812    -0.86800
C1138       C  0.54981315  0.54782124  0.88857570     0.89200
Mg1139     Mg  0.50432476  0.93782126  0.06147939     1.58100
O1140       O  0.51264893  0.55278483  0.05459169    -0.86500
O1141       O  0.55014504  0.52622830  0.13553627    -0.73900
C1142       C  0.87671046  0.93581686  0.95249612     0.94300
O1143       O  0.52683093  0.97403767  0.88465781    -0.73700
O1144       O  0.88990144  0.92024470  0.94744761    -0.81200
Mg1145     Mg  0.56673825  0.50682527  0.96048616     1.58000
C1146       C  0.93353187  0.55798527  0.04550425     0.94200
O1147       O  0.60936516  0.53867687  0.03225082    -0.79500
H1148       H  0.51156641  0.55824998  0.16895421    -0.04800
C1149       C  0.95689647  0.00249676  0.88125335     0.89100
O1150       O  0.97188680  0.94806210  0.13307825    -0.74000
O1151       O  0.55339049  0.54056497  0.95430434    -0.86700
O1152       O  0.96096566  0.57178921  0.02085903    -0.79500
C1153       C  0.56018928  0.62567813  0.96331882     0.94300
C1154       C  0.62361548  0.56577827  0.05873514     0.94200
Mg1155     Mg  0.93424361  0.99602698  0.04700087     1.58000
O1156       O  0.89086797  0.96326431  0.97708434    -0.79500
O1157       O  0.97217185  0.52588207  0.13097279    -0.73700
O1158       O  0.57282286  0.61156763  0.99143902    -0.79500
O1159       O  0.58027490  0.97028815  0.96756021    -0.81300
O1160       O  0.92741830  0.88987825  0.01861302    -0.79600
C1161       C  0.99959693  0.54692870  0.12148958     0.88600
O1162       O  0.94760107  0.96201216  0.05399024    -0.86700
O1163       O  0.96044358  0.51283220  0.94944326    -0.86800
O1164       O  0.94971865  0.97484293  0.87270546    -0.73900
Mg1165     Mg  0.56008272  0.56696425  0.05778756     1.58000
O1166       O  0.53161173  0.61211254  0.95124200    -0.81300
H1167       H  0.54077235  0.98347562  0.18183729    -0.05000
O1168       O  0.98724094  0.94809133  0.95260132    -0.86500
H1169       H  0.98671221  0.94146064  0.83841168    -0.04800
H1170       H  0.93856321  0.95632453  0.16756311    -0.05000
C1171       C  0.49942992  0.95278076  0.89288829     0.88600
C1172       C  0.54303779  0.49867508  0.12528190     0.89200
C1173       C  0.95179979  0.95526298  0.11970910     0.89200
H1174       H  0.95647023  0.51408772  0.83450956    -0.05000
O1175       O  0.52948090  0.55456912  0.87420540    -0.74000
Mg1176     Mg  0.94009384  0.93453538  0.95195985     1.58000
H1177       H  0.56373248  0.54747514  0.84153714    -0.05000
C1178       C  0.56561583  0.94145165  0.97370284     0.94200
O1179       O  0.96882846  0.88947116  0.05803614    -0.81200
C1180       C  0.94026116  0.87581246  0.04581261     0.94200
O1181       O  0.61064325  0.58155685  0.06496192    -0.81200
Mg1182     Mg  0.99380562  0.56068910  0.95318602     1.58200
O1183       O  0.53790360  0.92703401  0.99607222    -0.79500
O1184       O  0.91829753  0.52910620  0.05092191    -0.81200
O1185       O  0.98830908  0.54092602  0.43577612    -0.86800
C1186       C  0.54892686  0.54951864  0.60397255     0.89200
Mg1187     Mg  0.94028998  0.50736993  0.44083073     1.58100
O1188       O  0.55365469  0.51477317  0.43218776    -0.86500
O1189       O  0.52813851  0.55460524  0.35898150    -0.73900
C1190       C  0.93482762  0.87713725  0.54081398     0.94300
O1191       O  0.97555065  0.52790801  0.61656305    -0.73700
O1192       O  0.91923819  0.89034382  0.54745320    -0.81200
Mg1193     Mg  0.50801360  0.56783928  0.53843695     1.58000
C1194       C  0.55663329  0.93355138  0.44783077     0.94200
O1195       O  0.54015696  0.61188313  0.47058490    -0.79500
H1196       H  0.55807698  0.51517382  0.31700191    -0.04800
C1197       C  0.00245371  0.95742235  0.60674060     0.89100
O1198       O  0.94657789  0.97514495  0.36496639    -0.74000
O1199       O  0.54188160  0.55451883  0.53954275    -0.86700
O1200       O  0.57009057  0.96110293  0.47083666    -0.79500
C1201       C  0.62669363  0.56049726  0.52612396     0.94300
C1202       C  0.56742047  0.62609871  0.44480675     0.94200
Mg1203     Mg  0.99364971  0.93556591  0.44119101     1.58000
O1204       O  0.96190109  0.89138112  0.51319423    -0.79500
O1205       O  0.52427933  0.97219436  0.36182658    -0.73700
O1206       O  0.61312983  0.57431324  0.50200700    -0.79500
O1207       O  0.97191958  0.58291653  0.54144801    -0.81300
O1208       O  0.88909207  0.92960544  0.47997321    -0.79600
C1209       C  0.54535065  0.99976035  0.36986760     0.88600
O1210       O  0.95954045  0.94852353  0.43894281    -0.86700
O1211       O  0.51181773  0.96099466  0.54265641    -0.86800
O1212       O  0.97491024  0.94976136  0.61936154    -0.73900
Mg1213     Mg  0.56840501  0.56257328  0.43565692     1.58000
O1214       O  0.61261856  0.53161658  0.53282855    -0.81300
H1215       H  0.98682125  0.54775004  0.32217452    -0.05000
O1216       O  0.94934758  0.98927159  0.54585251    -0.86500
H1217       H  0.94526323  0.98881135  0.66111562    -0.04800
H1218       H  0.95283571  0.94114878  0.32500440    -0.05000
C1219       C  0.95451306  0.50044024  0.60748226     0.88600
C1220       C  0.50067879  0.54749662  0.37058614     0.89200
C1221       C  0.95269540  0.95403526  0.37472106     0.89200
H1222       H  0.51363341  0.95676709  0.65732845    -0.05000
O1223       O  0.55536060  0.52871028  0.61440041    -0.74000
Mg1224     Mg  0.93408876  0.94124316  0.54419302     1.58000
H1225       H  0.54867713  0.56256266  0.65320428    -0.05000
C1226       C  0.94307376  0.56733298  0.53482547     0.94200
O1227       O  0.89031362  0.97299348  0.45159256    -0.81200
C1228       C  0.87590620  0.94421661  0.45939775     0.94200
O1229       O  0.58280531  0.61283846  0.43574884    -0.81200
Mg1230     Mg  0.55979433  0.99399844  0.53761247     1.58200
O1231       O  0.92985677  0.54012976  0.50903059    -0.79500
O1232       O  0.52780199  0.91794201  0.44257911    -0.81200
C1233       C  0.57053994  0.67667525  0.46355169     0.25100
C1234       C  0.58210351  0.65937789  0.42915115    -0.23000
C1235       C  0.60900395  0.67470212  0.38455674     0.20000
C1236       C  0.62464954  0.70650799  0.37811874     0.25100
C1237       C  0.61381200  0.72358239  0.41606315    -0.22900
C1238       C  0.58633273  0.70837795  0.45731524     0.20000
F1239       F  0.57484729  0.72438766  0.49207927    -0.12900
F1240       F  0.54453589  0.66315518  0.50606180    -0.15200
F1241       F  0.65116703  0.72078209  0.33786576    -0.15200
F1242       F  0.62044662  0.65902030  0.34785530    -0.12900
C1243       C  0.82803612  0.90045834  0.40426618     0.25100
C1244       C  0.84258161  0.92762054  0.44725930    -0.23000
C1245       C  0.82491177  0.93893211  0.48014560     0.20000
C1246       C  0.79329693  0.92306841  0.47173492     0.25100
C1247       C  0.77871639  0.89593128  0.42885017    -0.22900
C1248       C  0.79636497  0.88491877  0.39439444     0.20000
F1249       F  0.78277307  0.85853207  0.35362239    -0.12900
F1250       F  0.84452112  0.88919606  0.37110486    -0.15200
F1251       F  0.77682114  0.93426792  0.50529000    -0.15200
F1252       F  0.83818917  0.96486357  0.52290927    -0.12900
C1253       C  0.62226449  0.91813100  0.44561039     0.25100
C1254       C  0.60886467  0.88918656  0.41202538    -0.23000
C1255       C  0.57892594  0.87558912  0.38476287     0.20000
C1256       C  0.56209134  0.89028627  0.39402766     0.25100
C1257       C  0.57513773  0.91906901  0.43028877    -0.22900
C1258       C  0.60581703  0.93314001  0.45394687     0.20000
F1259       F  0.61977349  0.96098120  0.48799964    -0.12900
F1260       F  0.65130235  0.93161116  0.47168165    -0.15200
F1261       F  0.53289565  0.87602164  0.36878761    -0.15200
F1262       F  0.56553904  0.84739321  0.35280314    -0.12900
C1263       C  0.60759561  0.67653099  0.98418425     0.25100
C1264       C  0.57931361  0.65901394  0.94698671    -0.23000
C1265       C  0.56928640  0.67402926  0.89673650     0.20000
C1266       C  0.58688933  0.70562560  0.88504306     0.25100
C1267       C  0.61469913  0.72297696  0.92381680    -0.22900
C1268       C  0.62493543  0.70801429  0.97282316     0.20000
F1269       F  0.65181486  0.72405150  0.01051515    -0.12900
F1270       F  0.61810239  0.66347717  0.03435381    -0.15200
F1271       F  0.57601829  0.71949980  0.83883836    -0.15200
F1272       F  0.54228765  0.65827276  0.85938395    -0.12900
C1273       C  0.82744142  0.93651573  0.94884316     0.25100
C1274       C  0.84366845  0.92135732  0.93249408    -0.23000
C1275       C  0.82739977  0.89162194  0.90111334     0.20000
C1276       C  0.79582967  0.87725809  0.88966667     0.25100
C1277       C  0.77986293  0.89210593  0.90951706    -0.22900
C1278       C  0.79595532  0.92193652  0.93778088     0.20000
F1279       F  0.78085447  0.93668576  0.95662174    -0.12900
F1280       F  0.84169736  0.96511354  0.97851369    -0.15200
F1281       F  0.78054715  0.84827736  0.86262382    -0.15200
F1282       F  0.84173822  0.87598756  0.88338222    -0.12900
C1283       C  0.62845858  0.92220169  0.95487973     0.25100
C1284       C  0.61244095  0.89189133  0.92998475    -0.23000
C1285       C  0.58099148  0.87787550  0.91768622     0.20000
C1286       C  0.56563839  0.89390235  0.93123921     0.25100
C1287       C  0.58166261  0.92442746  0.95641292    -0.22900
C1288       C  0.61337801  0.93846018  0.96723692     0.20000
F1289       F  0.62971805  0.96759328  0.99289820    -0.12900
F1290       F  0.65876449  0.93584980  0.96843688    -0.15200
F1291       F  0.53515675  0.87957613  0.91959744    -0.15200
F1292       F  0.56506065  0.84833261  0.89512324    -0.12900
C1293       C  0.68553975  0.82810221  0.62438989     0.25100
C1294       C  0.66401905  0.83237087  0.58370711    -0.23000
C1295       C  0.63832840  0.82783666  0.62604600     0.20000
C1296       C  0.63857654  0.82784207  0.70716628     0.25100
C1297       C  0.66440152  0.83207946  0.74784263    -0.22900
C1298       C  0.68566253  0.82785072  0.70527011     0.20000
F1299       F  0.70507793  0.82100016  0.74128625    -0.12900
F1300       F  0.70514202  0.82190608  0.58627020    -0.15200
F1301       F  0.61246093  0.82068984  0.74513172    -0.15200
F1302       F  0.61186281  0.82023290  0.58975721    -0.12900
C1303       C  0.64189008  0.81563266  0.12503953     0.25100
C1304       C  0.66787668  0.83696391  0.08359054    -0.23000
C1305       C  0.68949662  0.86264372  0.12523605     0.20000
C1306       C  0.68910651  0.86278249  0.20622065     0.25100
C1307       C  0.66723815  0.83714829  0.24779548    -0.22900
C1308       C  0.64165074  0.81560428  0.20594011     0.20000
F1309       F  0.61541304  0.79598550  0.24284367    -0.12900
F1310       F  0.61571379  0.79633082  0.08770839    -0.15200
F1311       F  0.70800253  0.88927901  0.24288290    -0.15200
F1312       F  0.70897060  0.88891020  0.08835570    -0.12900
C1313       C  0.87744088  0.58308362  0.53911926     0.25100
C1314       C  0.88937023  0.60968314  0.58395615    -0.23000
C1315       C  0.91834710  0.62145738  0.61650164     0.20000
C1316       C  0.93577798  0.60766122  0.60153138     0.25100
C1317       C  0.92418162  0.58128267  0.55497508    -0.22900
C1318       C  0.89443712  0.56886160  0.52528039     0.20000
F1319       F  0.88212956  0.54366394  0.47975247    -0.12900
F1320       F  0.84937280  0.57119421  0.50736496    -0.15200
F1321       F  0.96418192  0.62048576  0.63164552    -0.15200
F1322       F  0.93037407  0.64729934  0.65937867    -0.12900
C1323       C  0.87628265  0.79510714  0.59933701     0.25100
C1324       C  0.89317125  0.78034467  0.59282684    -0.23000
C1325       C  0.92425921  0.79777984  0.57504649     0.20000
C1326       C  0.93805695  0.82925652  0.56129819     0.25100
C1327       C  0.92087398  0.84410349  0.56353571    -0.22900
C1328       C  0.88982758  0.82651574  0.58486842     0.20000
F1329       F  0.87210177  0.83934845  0.58941039    -0.12900
F1330       F  0.84617258  0.77868923  0.61619398    -0.15200
F1331       F  0.96821533  0.84499603  0.54456445    -0.15200
F1332       F  0.94117759  0.78409367  0.56969317    -0.12900
C1333       C  0.67408533  0.60956417  0.56525068     0.25100
C1334       C  0.65985444  0.57837842  0.54571573    -0.23000
C1335       C  0.67790325  0.56451038  0.54376482     0.20000
C1336       C  0.70916795  0.58143770  0.55934801     0.25100
C1337       C  0.72320819  0.61251566  0.57711423    -0.22900
C1338       C  0.70544465  0.62639414  0.58065587     0.20000
F1339       F  0.71874320  0.65651189  0.59693884    -0.12900
F1340       F  0.65770642  0.62385314  0.56955280    -0.15200
F1341       F  0.72604146  0.56765670  0.55558860    -0.15200
F1342       F  0.66562259  0.53479664  0.52377611    -0.12900
C1343       C  0.93583143  0.60793772  0.07377166     0.25100
C1344       C  0.91865169  0.57592640  0.06654171    -0.23000
C1345       C  0.88678808  0.56135639  0.07685486     0.20000
C1346       C  0.87256816  0.57843054  0.08968539     0.25100
C1347       C  0.88970614  0.61022919  0.09318358    -0.22900
C1348       C  0.92139892  0.62482949  0.08697033     0.20000
F1349       F  0.93823023  0.65561033  0.09106512    -0.12900
F1350       F  0.96656845  0.62307338  0.06679401    -0.15200
F1351       F  0.84183560  0.56402327  0.09593492    -0.15200
F1352       F  0.86907454  0.53065229  0.07143700    -0.12900
C1353       C  0.93008274  0.82755570  0.11441997     0.25100
C1354       C  0.92155593  0.84227962  0.05932587    -0.23000
C1355       C  0.89575183  0.82429911  0.01334227     0.20000
C1356       C  0.87939694  0.79254768  0.02083276     0.25100
C1357       C  0.88807346  0.77776415  0.07522763    -0.22900
C1358       C  0.91345827  0.79573172  0.12252382     0.20000
F1359       F  0.92300155  0.78243203  0.17459093    -0.12900
F1360       F  0.95455542  0.84392794  0.16065583    -0.15200
F1361       F  0.85483786  0.77627335  0.97484846    -0.15200
F1362       F  0.88687903  0.83732466  0.95865663    -0.12900
C1363       C  0.70416961  0.62171913  0.12900286     0.25100
C1364       C  0.72058967  0.60888618  0.09741268    -0.23000
C1365       C  0.70474262  0.58051103  0.06065687     0.20000
C1366       C  0.67316713  0.56582492  0.05181842     0.25100
C1367       C  0.65660069  0.57954644  0.07835225    -0.22900
C1368       C  0.67249941  0.60735749  0.11914693     0.20000
F1369       F  0.65758797  0.62100991  0.14836486    -0.12900
F1370       F  0.71905055  0.64891878  0.16599968    -0.15200
F1371       F  0.65914412  0.53868922  0.01426163    -0.15200
F1372       F  0.72009582  0.56720509  0.03215161    -0.12900
C1373       C  0.81210144  0.63850183  0.79915650     0.25100
C1374       C  0.83485205  0.66420930  0.75938088    -0.23000
C1375       C  0.86093973  0.68406421  0.80243170     0.20000
C1376       C  0.86056652  0.68275874  0.88338193     0.25100
C1377       C  0.83392984  0.66200957  0.92360970    -0.22900
C1378       C  0.81161026  0.63744183  0.88026395     0.20000
F1379       F  0.79139771  0.61100260  0.91523889    -0.12900
F1380       F  0.79203085  0.61310756  0.76015803    -0.15200
F1381       F  0.88688131  0.70060660  0.92201471    -0.15200
F1382       F  0.88759214  0.70322186  0.76657060    -0.12900
C1383       C  0.82972810  0.68881891  0.30125909     0.25100
C1384       C  0.83194095  0.66617181  0.25953189    -0.23000
C1385       C  0.82671391  0.64025933  0.30157648     0.20000
C1386       C  0.82742281  0.64073333  0.38243407     0.25100
C1387       C  0.83402442  0.66736765  0.42357242    -0.22900
C1388       C  0.83103418  0.68957142  0.38217468     0.20000
F1389       F  0.82594212  0.71004819  0.41956264    -0.12900
F1390       F  0.82263718  0.70803495  0.26512023    -0.15200
F1391       F  0.81883838  0.61421253  0.42001622    -0.15200
F1392       F  0.81845141  0.61358204  0.26500066    -0.12900
loop_ 
_geom_bond_atom_site_label_1 
_geom_bond_atom_site_label_2 
_geom_bond_distance 
_geom_bond_site_symmetry_2 
_ccdc_geom_bond_type 
C1            C3   1.547       .  S
C1            C5   1.551       .  S
C1            C4   1.535       .  S
C1          C340   1.529       .  S
C2            C6   1.535       .  S
C2            C8   1.548       .  S
C2            C7   1.548       .  S
C2          C333   1.537   1_554  S
C3           C11   1.387       .  A
C3            C6   1.392       .  A
C4           C15   1.381       .  A
C4            C7   1.394       .  A
C5           C19   1.386       .  A
C5            C8   1.395       .  A
C6            C9   1.377       .  A
C7           C13   1.382       .  A
C8           C16   1.384       .  A
C9           N10   1.356       .  A
C9           H22   1.083   1_554  S
N10          C11   1.358       .  A
N10         C303   1.437       .  S
C11          H12   1.082       .  S
C13          N14   1.359       .  A
C13          H23   1.082   1_554  S
N14          C15   1.357       .  A
N14         C320   1.442       .  S
C15          H21   1.082       .  S
C16          N17   1.359       .  A
C16          H18   1.081   1_554  S
N17          C19   1.360       .  A
N17         C313   1.449       .  S
C19          H20   1.081       .  S
C24          C26   1.537       .  S
C24          C28   1.528       .  S
C24          C27   1.545       .  S
C24         C343   1.530       .  S
C25          C29   1.544       .  S
C25          C31   1.555       .  S
C25          C30   1.562       .  S
C25         C330   1.535       .  S
C26          C34   1.377       .  A
C26          C29   1.390       .  A
C27          C38   1.381       .  A
C27          C30   1.399       .  A
C28          C42   1.374       .  A
C28          C31   1.390       .  A
C29          C32   1.387       .  A
C30          C36   1.394       .  A
C31          C39   1.393       .  A
C32          N33   1.363       .  A
C32          H45   1.082       .  S
N33          C34   1.356       .  A
N33         C270   1.444       .  S
C34          H35   1.083       .  S
C36          N37   1.363       .  A
C36          H46   1.082       .  S
N37          C38   1.356       .  A
N37         C280   1.446       .  S
C38          H44   1.081       .  S
C39          N40   1.363       .  A
C39          H41   1.081       .  S
N40          C42   1.355       .  A
N40         C293   1.444       .  S
C42          H43   1.083       .  S
C47          C49   1.526       .  S
C47          C51   1.537       .  S
C47          C50   1.544       .  S
C47         C260   1.531   1_556  S
C48          C52   1.554       .  S
C48          C54   1.543       .  S
C48          C53   1.556       .  S
C48         C253   1.531       .  S
C49          C57   1.371       .  A
C49          C52   1.390       .  A
C50          C61   1.380       .  A
C50          C53   1.399       .  A
C51          C65   1.376       .  A
C51          C54   1.389       .  A
C52          C55   1.391       .  A
C53          C59   1.389       .  A
C54          C62   1.387       .  A
C55          N56   1.363       .  A
C55          H68   1.080       .  S
N56          C57   1.355       .  A
N56         C240   1.445       .  S
C57          H58   1.083   1_556  S
C59          N60   1.357       .  A
C59          H69   1.082       .  S
N60          C61   1.355       .  A
N60         C233   1.438       .  S
C61          H67   1.081   1_556  S
C62          N63   1.364       .  A
C62          H64   1.082       .  S
N63          C65   1.357       .  A
N63         C223   1.447       .  S
C65          H66   1.082   1_556  S
C70          C72   1.538       .  S
C70          C74   1.553       .  S
C70          C73   1.547       .  S
C70         C263   1.529       .  S
C71          C75   1.544       .  S
C71          C77   1.541       .  S
C71          C76   1.533       .  S
C71         C250   1.532       .  S
C72          C80   1.381       .  A
C72          C75   1.395       .  A
C73          C84   1.387       .  A
C73          C76   1.389       .  A
C74          C88   1.387       .  A
C74          C77   1.393       .  A
C75          C78   1.380       .  A
C76          C82   1.373       .  A
C77          C85   1.378       .  A
C78          N79   1.356       .  A
C78          H91   1.082       .  S
N79          C80   1.357       .  A
N79         C210   1.435       .  S
C80          H81   1.082       .  S
C82          N83   1.360       .  A
C82          H92   1.083       .  S
N83          C84   1.364       .  A
N83         C193   1.450       .  S
C84          H90   1.080       .  S
C85          N86   1.358       .  A
C85          H87   1.081       .  S
N86          C88   1.360       .  A
N86         C203   1.447       .  S
C88          H89   1.082       .  S
O93         Mg95   2.155       .  S
O93        Mg449   2.163   1_554  S
O93         C476   1.237       .  S
C94         H133   1.082       .  S
C94         O107   1.236       .  S
C94         O131   1.270       .  A
Mg95        O820   2.162   1_454  S
Mg95        O139   2.323   1_554  S
Mg95        O831   2.297   1_455  S
Mg95        O802   2.298   1_455  S
O96        Mg121   2.145       .  S
O96        Mg834   2.156   1_454  S
O96         C813   1.237       .  S
O97         C128   1.272       .  A
O97        Mg121   2.302       .  S
C98         O100   1.275       .  A
C98         O112   1.277       .  A
C98         C230   1.498       .  S
O99         C127   1.270   1_455  A
O99        Mg449   2.296       .  S
O100       Mg132   2.285       .  S
Mg101       O107   2.147       .  S
Mg101       O441   2.159   1_546  S
Mg101       O103   2.289   1_556  S
Mg101       O447   2.293   1_545  S
Mg101       O463   2.273   1_545  S
C102        O140   1.276       .  A
C102        O108   1.278       .  A
C102        C300   1.499       .  S
O103        C110   1.274       .  A
H104        C813   1.080       .  S
C105        H478   1.082       .  S
C105        O467   1.237       .  S
C105        O120   1.271       .  A
O106        C129   1.270       .  A
O106       Mg791   2.299       .  S
O107       Mg121   2.158   1_556  S
O108       Mg138   2.318   1_554  S
C109        O122   1.276       .  A
C109        O114   1.281       .  A
C109        C220   1.498       .  S
C110        O137   1.277       .  A
C110        C323   1.491       .  S
Mg111       O118   2.145       .  S
Mg111       O467   2.158   1_554  S
Mg111       O112   2.316   1_554  S
Mg111       O461   2.302       .  S
Mg111       O488   2.275       .  S
O113        C117   1.272       .  A
O113       Mg459   2.301   1_545  S
O114       Mg121   2.338   1_556  S
O115        C134   1.273       .  A
O115       Mg449   2.270       .  S
O116        C136   1.278       .  A
O116       Mg132   2.321   1_554  S
C117        H800   1.079       .  S
C117        O792   1.237       .  S
O118       Mg132   2.157   1_554  S
O118        C129   1.237       .  S
O119       Mg138   2.161       .  S
O119       Mg459   2.157   1_546  S
O119        C453   1.237   1_545  S
O120       Mg132   2.302       .  S
Mg121       O137   2.301       .  S
O122       Mg834   2.293   1_455  S
H123        C476   1.082       .  S
O124       Mg132   2.142       .  S
O124       Mg791   2.157   1_556  S
O124        C823   1.237       .  S
H125        C823   1.080       .  S
H126        C129   1.083       .  S
C127        H821   1.080       .  S
C127        O820   1.237       .  S
C128        H471   1.082   1_545  S
C128        O441   1.238   1_545  S
H130        C453   1.082   1_545  S
O131       Mg834   2.296   1_455  S
C134        O139   1.279       .  A
C134        C243   1.487       .  S
O135        C136   1.277       .  A
O135       Mg791   2.302       .  S
C136        C310   1.497       .  S
Mg138       O792   2.155   1_556  S
Mg138       O818   2.296       .  S
Mg138       O827   2.297       .  S
O140       Mg459   2.291   1_545  S
O141       Mg143   2.159       .  S
O141       Mg845   2.161       .  S
O141        C872   1.236       .  S
C142        H181   1.082       .  S
C142        O155   1.236       .  S
C142        O179   1.269       .  A
Mg143       O520   2.163   1_545  S
Mg143       O187   2.307       .  S
Mg143       O531   2.284   1_545  S
Mg143       O502   2.294   1_545  S
O144       Mg169   2.151       .  S
O144       Mg534   2.162   1_545  S
O144        C513   1.239       .  S
O145        C176   1.272   1_455  A
O145       Mg169   2.304       .  S
C146        O148   1.278       .  A
C146        O160   1.280       .  A
C146        C283   1.508       .  S
O147        C175   1.271   1_545  A
O147       Mg845   2.297       .  S
O148       Mg180   2.306       .  S
Mg149       O155   2.132       .  S
Mg149       O837   2.158   1_455  S
Mg149       O151   2.310       .  S
Mg149       O843   2.301   1_455  S
Mg149       O859   2.277   1_455  S
C150        O188   1.274       .  A
C150        O156   1.273       .  A
C150        C213   1.493       .  S
O151        C158   1.277       .  A
H152        C513   1.082       .  S
C153        H874   1.082       .  S
C153        O863   1.236       .  S
C153        O168   1.271       .  A
O154        C177   1.271       .  A
O154       Mg491   2.295       .  S
O155       Mg169   2.155       .  S
O156       Mg186   2.289       .  S
C157        O170   1.276       .  A
C157        O162   1.279       .  A
C157        C290   1.501       .  S
C158        O185   1.275       .  A
C158        C190   1.486       .  S
Mg159       O166   2.141       .  S
Mg159       O863   2.155       .  S
Mg159       O160   2.338       .  S
Mg159       O857   2.310       .  S
Mg159       O884   2.268       .  S
O161        C165   1.274       .  A
O161       Mg855   2.315   1_455  S
O162       Mg169   2.332       .  S
O163        C182   1.276       .  A
O163       Mg845   2.294       .  S
O164        C184   1.279       .  A
O164       Mg180   2.322       .  S
C165        H500   1.082       .  S
C165        O492   1.240       .  S
O166       Mg180   2.158       .  S
O166        C177   1.238       .  S
O167       Mg186   2.161       .  S
O167       Mg855   2.157   1_455  S
O167        C849   1.236       .  S
O168       Mg180   2.302       .  S
Mg169       O185   2.287       .  S
O170       Mg534   2.296   1_545  S
H171        C872   1.083       .  S
O172       Mg180   2.150       .  S
O172       Mg491   2.166       .  S
O172        C523   1.237       .  S
H173        C523   1.082       .  S
H174        C177   1.082       .  S
C175        H521   1.082       .  S
C175        O520   1.237       .  S
C176        H867   1.083       .  S
C176        O837   1.238       .  S
H178        C849   1.082       .  S
O179       Mg534   2.290   1_545  S
C182        O187   1.276       .  A
C182        C273   1.490       .  S
O183        C184   1.274       .  A
O183       Mg491   2.282       .  S
C184        C200   1.487       .  S
Mg186       O492   2.154       .  S
Mg186       O518   2.288       .  S
Mg186       O527   2.301       .  S
O188       Mg855   2.281   1_455  S
C189        C190   1.406       .  A
C189        C194   1.396       .  A
C189        F196   1.358       .  S
C190        C191   1.408       .  A
C191        C192   1.406       .  A
C191        F198   1.358       .  S
C192        C193   1.412       .  A
C192        F197   1.357       .  S
C193        C194   1.410       .  A
C194        F195   1.357       .  S
C199        C200   1.406       .  A
C199        C204   1.399       .  A
C199        F206   1.358       .  S
C200        C201   1.409       .  A
C201        C202   1.406       .  A
C201        F208   1.358       .  S
C202        C203   1.410       .  A
C202        F207   1.357       .  S
C203        C204   1.409       .  A
C204        F205   1.357       .  S
C209        C210   1.399       .  A
C209        C214   1.398       .  A
C209        F216   1.357       .  S
C210        C211   1.403       .  A
C211        C212   1.403       .  A
C211        F218   1.357       .  S
C212        C213   1.413       .  A
C212        F217   1.358       .  S
C213        C214   1.415       .  A
C214        F215   1.358       .  S
C219        C220   1.410       .  A
C219        C224   1.400       .  A
C219        F226   1.358   1_556  S
C220        C221   1.414       .  A
C221        C222   1.407       .  A
C221        F228   1.358       .  S
C222        C223   1.407       .  A
C222        F227   1.357       .  S
C223        C224   1.407       .  A
C224        F225   1.357   1_556  S
C229        C230   1.414       .  A
C229        C234   1.399       .  A
C229        F236   1.358       .  S
C230        C231   1.416       .  A
C231        C232   1.406       .  A
C231        F238   1.358       .  S
C232        C233   1.403       .  A
C232        F237   1.357       .  S
C233        C234   1.400       .  A
C234        F235   1.357       .  S
C239        C240   1.407       .  A
C239        C244   1.404       .  A
C239        F246   1.357       .  S
C240        C241   1.409       .  A
C241        C242   1.399       .  A
C241        F248   1.357   1_556  S
C242        C243   1.407       .  A
C242        F247   1.358   1_556  S
C243        C244   1.410       .  A
C244        F245   1.358       .  S
C249        C250   1.412       .  A
C249        C254   1.396       .  A
C249        F256   1.357       .  S
C250        C251   1.411       .  A
C251        C252   1.402       .  A
C251        F258   1.355       .  S
C252        C253   1.411       .  A
C252        F257   1.356       .  S
C253        C254   1.409       .  A
C254        F255   1.357       .  S
C259        C260   1.413       .  A
C259        C264   1.396       .  A
C259        F266   1.357       .  S
C260        C261   1.410       .  A
C261        C262   1.399       .  A
C261        F268   1.356       .  S
C262        C263   1.412       .  A
C262        F267   1.356       .  S
C263        C264   1.408       .  A
C264        F265   1.357       .  S
C269        C270   1.408       .  A
C269        C274   1.400       .  A
C269        F276   1.358       .  S
C270        C271   1.405       .  A
C271        C272   1.405       .  A
C271        F278   1.356       .  S
C272        C273   1.410       .  A
C272        F277   1.357       .  S
C273        C274   1.410       .  A
C274        F275   1.359       .  S
C279        C280   1.405       .  A
C279        C284   1.409       .  A
C279        F286   1.357       .  S
C280        C281   1.403       .  A
C281        C282   1.405       .  A
C281        F288   1.357       .  S
C282        C283   1.415       .  A
C282        F287   1.358       .  S
C283        C284   1.417       .  A
C284        F285   1.358       .  S
C289        C290   1.413       .  A
C289        C294   1.403       .  A
C289        F296   1.358       .  S
C290        C291   1.414       .  A
C291        C292   1.406       .  A
C291        F298   1.357       .  S
C292        C293   1.405       .  A
C292        F297   1.357       .  S
C293        C294   1.405       .  A
C294        F295   1.357       .  S
C299        C300   1.416       .  A
C299        C304   1.402       .  A
C299        F306   1.358       .  S
C300        C301   1.415       .  A
C301        C302   1.403       .  A
C301        F308   1.358       .  S
C302        C303   1.402       .  A
C302        F307   1.357       .  S
C303        C304   1.400       .  A
C304        F305   1.357       .  S
C309        C310   1.411       .  A
C309        C314   1.405       .  A
C309        F316   1.357       .  S
C310        C311   1.412       .  A
C311        C312   1.403       .  A
C311        F318   1.358   1_554  S
C312        C313   1.407       .  A
C312        F317   1.357   1_554  S
C313        C314   1.409       .  A
C314        F315   1.357       .  S
C319        C320   1.407       .  A
C319        C324   1.406       .  A
C319        F326   1.357       .  S
C320        C321   1.403       .  A
C321        C322   1.397       .  A
C321        F328   1.358       .  S
C322        C323   1.412       .  A
C322        F327   1.358   1_554  S
C323        C324   1.411       .  A
C324        F325   1.358       .  S
C329        C330   1.413       .  A
C329        C334   1.403       .  A
C329        F336   1.356       .  S
C330        C331   1.411       .  A
C331        C332   1.400       .  A
C331        F338   1.356       .  S
C332        C333   1.411       .  A
C332        F337   1.358       .  S
C333        C334   1.410       .  A
C334        F335   1.356       .  S
C339        C340   1.411       .  A
C339        C344   1.399       .  A
C339        F346   1.356       .  S
C340        C341   1.408       .  A
C341        C342   1.396       .  A
C341        F348   1.357       .  S
C342        C343   1.412       .  A
C342        F347   1.357       .  S
C343        C344   1.411       .  A
C344        F345   1.356       .  S
C349        C351   1.550       .  S
C349        C353   1.553       .  S
C349        C352   1.540       .  S
C349        C688   1.529       .  S
C350        C354   1.529       .  S
C350        C356   1.544       .  S
C350        C355   1.545       .  S
C350        C681   1.533   1_554  S
C351        C359   1.389       .  A
C351        C354   1.392       .  A
C352        C363   1.385       .  A
C352        C355   1.394       .  A
C353        C367   1.388       .  A
C353        C356   1.394       .  A
C354        C357   1.373       .  A
C355        C361   1.381       .  A
C356        C364   1.380       .  A
C357        N358   1.354       .  A
C357        H370   1.083   1_554  S
N358        C359   1.360       .  A
N358        C651   1.436       .  S
C359        H360   1.082       .  S
C361        N362   1.357       .  A
C361        H371   1.082   1_554  S
N362        C363   1.359       .  A
N362        C668   1.439       .  S
C363        H369   1.082       .  S
C364        N365   1.358       .  A
C364        H366   1.081   1_554  S
N365        C367   1.361       .  A
N365        C661   1.448       .  S
C367        H368   1.081       .  S
C372        C374   1.539       .  S
C372        C376   1.530       .  S
C372        C375   1.547       .  S
C372        C691   1.530       .  S
C373        C377   1.545       .  S
C373        C379   1.557       .  S
C373        C378   1.559       .  S
C373        C678   1.532       .  S
C374        C382   1.379       .  A
C374        C377   1.390       .  A
C375        C386   1.383       .  A
C375        C378   1.398       .  A
C376        C390   1.376       .  A
C376        C379   1.390       .  A
C377        C380   1.388       .  A
C378        C384   1.394       .  A
C379        C387   1.395       .  A
C380        N381   1.361       .  A
C380        H393   1.082       .  S
N381        C382   1.356       .  A
N381        C618   1.442       .  S
C382        H383   1.083       .  S
C384        N385   1.362       .  A
C384        H394   1.082       .  S
N385        C386   1.355       .  A
N385        C628   1.445       .  S
C386        H392   1.082       .  S
C387        N388   1.363       .  A
C387        H389   1.081       .  S
N388        C390   1.354       .  A
N388        C641   1.443       .  S
C390        H391   1.083       .  S
C395        C397   1.529       .  S
C395        C399   1.538       .  S
C395        C398   1.543       .  S
C395        C608   1.528   1_556  S
C396        C400   1.554       .  S
C396        C402   1.545       .  S
C396        C401   1.557       .  S
C396        C601   1.532       .  S
C397        C405   1.376       .  A
C397        C400   1.391       .  A
C398        C409   1.380       .  A
C398        C401   1.398       .  A
C399        C413   1.377       .  A
C399        C402   1.391       .  A
C400        C403   1.391       .  A
C401        C407   1.391       .  A
C402        C410   1.387       .  A
C403        N404   1.360       .  A
C403        H416   1.081       .  S
N404        C405   1.354       .  A
N404        C588   1.439       .  S
C405        H406   1.083   1_556  S
C407        N408   1.359       .  A
C407        H417   1.082       .  S
N408        C409   1.354       .  A
N408        C581   1.440       .  S
C409        H415   1.081   1_556  S
C410        N411   1.363       .  A
C410        H412   1.082       .  S
N411        C413   1.357       .  A
N411        C571   1.446       .  S
C413        H414   1.082   1_556  S
C418        C420   1.536       .  S
C418        C422   1.551       .  S
C418        C421   1.547       .  S
C418        C611   1.527       .  S
C419        C423   1.544       .  S
C419        C425   1.543       .  S
C419        C424   1.534       .  S
C419        C598   1.532       .  S
C420        C428   1.380       .  A
C420        C423   1.394       .  A
C421        C432   1.387       .  A
C421        C424   1.392       .  A
C422        C436   1.387       .  A
C422        C425   1.394       .  A
C423        C426   1.381       .  A
C424        C430   1.377       .  A
C425        C433   1.377       .  A
C426        N427   1.357       .  A
C426        H439   1.082       .  S
N427        C428   1.356       .  A
N427        C558   1.435       .  S
C428        H429   1.082       .  S
C430        N431   1.355       .  A
C430        H440   1.083       .  S
N431        C432   1.359       .  A
N431        C541   1.438       .  S
C432        H438   1.081       .  S
C433        N434   1.358       .  A
C433        H435   1.081       .  S
N434        C436   1.360       .  A
N434        C551   1.446       .  S
C436        H437   1.082       .  S
O441       Mg443   2.154       .  S
C442        H481   1.082       .  S
C442        O455   1.237       .  S
C442        O479   1.271       .  A
Mg443      O1168   2.158   1_454  S
Mg443       O487   2.330   1_554  S
Mg443      O1179   2.291   1_455  S
Mg443      O1150   2.304   1_455  S
O444      Mg1182   2.156   1_454  S
O444       Mg469   2.148       .  S
O444       C1161   1.237   1_455  S
O445        C476   1.271       .  A
O445       Mg469   2.302       .  S
C446        O448   1.275       .  A
C446        O460   1.280       .  A
C446        C578   1.501       .  S
O447        C475   1.270   1_455  A
O448       Mg480   2.288       .  S
Mg449       O455   2.151       .  S
Mg449       O451   2.311   1_556  S
C450        O488   1.274       .  A
C450        O456   1.277       .  A
C450        C648   1.493       .  S
O451        C458   1.276       .  A
H452       C1161   1.080   1_455  S
C453        O468   1.271       .  A
O454        C477   1.271       .  A
O454      Mg1139   2.302       .  S
O455       Mg469   2.160   1_556  S
O456       Mg486   2.311   1_554  S
C457        O470   1.276       .  A
C457        O462   1.279       .  A
C457        C568   1.496       .  S
C458        O485   1.275       .  A
C458        C671   1.498       .  S
Mg459       O466   2.156       .  S
Mg459       O460   2.329   1_554  S
O461        C465   1.272       .  A
O462       Mg469   2.324   1_556  S
O463        C482   1.273       .  A
O464        C484   1.279       .  A
O464       Mg480   2.323   1_554  S
C465       H1148   1.080       .  S
C465       O1140   1.238       .  S
O466       Mg480   2.159   1_554  S
O466        C477   1.237       .  S
O467       Mg486   2.157       .  S
O468       Mg480   2.304       .  S
Mg469       O485   2.293       .  S
O470      Mg1182   2.294   1_455  S
O472      Mg1139   2.162   1_556  S
O472       Mg480   2.148       .  S
O472       C1171   1.237       .  S
H473       C1171   1.080       .  S
H474        C477   1.083       .  S
C475       H1169   1.080       .  S
C475       O1168   1.237       .  S
O479      Mg1182   2.301   1_455  S
C482        O487   1.278       .  A
C482        C591   1.500       .  S
O483        C484   1.275       .  A
O483      Mg1139   2.288       .  S
C484        C658   1.493       .  S
Mg486      O1140   2.157   1_556  S
Mg486      O1166   2.293       .  S
Mg486      O1175   2.298       .  S
O489       Mg491   2.155       .  S
O489      Mg1193   2.158       .  S
O489       C1220   1.237       .  S
C490        H529   1.082       .  S
C490        O503   1.236       .  S
C490        O527   1.271       .  A
Mg491       O535   2.316       .  S
O492       Mg517   2.159       .  S
O493        C524   1.272       .  A
O493       Mg517   2.310       .  S
C494        O496   1.277       .  A
C494        O508   1.281       .  A
C494        C631   1.508       .  S
O495        C523   1.271       .  A
O495      Mg1193   2.295       .  S
O496       Mg528   2.299       .  S
Mg497      O1185   2.161   1_455  S
Mg497       O503   2.152       .  S
Mg497      O1191   2.304   1_455  S
Mg497      O1207   2.293   1_455  S
Mg497       O499   2.346       .  S
C498        O536   1.274       .  A
C498        O504   1.276       .  A
C498        C561   1.493       .  S
O499        C506   1.281       .  A
C501       H1222   1.082       .  S
C501       O1211   1.236       .  S
C501        O516   1.270       .  A
O502        C525   1.270       .  A
O503       Mg517   2.149       .  S
O504       Mg534   2.308       .  S
C505        O518   1.274       .  A
C505        O510   1.279       .  A
C505        C638   1.496       .  S
C506        O533   1.275       .  A
C506        C538   1.490       .  S
Mg507       O514   2.141       .  S
Mg507      O1211   2.158       .  S
Mg507       O508   2.347       .  S
Mg507      O1205   2.313       .  S
Mg507      O1232   2.273       .  S
O509        C513   1.273   1_565  A
O509      Mg1203   2.306   1_455  S
O510       Mg517   2.345       .  S
O511        C530   1.276       .  A
O511      Mg1193   2.292       .  S
O512        C532   1.279       .  A
O512       Mg528   2.319       .  S
O514       Mg528   2.155       .  S
O514        C525   1.237       .  S
O515      Mg1203   2.155   1_455  S
O515       Mg534   2.166       .  S
O515       C1197   1.236       .  S
O516       Mg528   2.301       .  S
Mg517       O533   2.276       .  S
H519       C1220   1.083       .  S
O520       Mg528   2.149       .  S
H522        C525   1.081       .  S
C524       H1215   1.083   1_455  S
C524       O1185   1.237   1_455  S
H526       C1197   1.082       .  S
C530        O535   1.277       .  A
C530        C621   1.497       .  S
O531        C532   1.274       .  A
C532        C548   1.488       .  S
O536      Mg1203   2.274   1_455  S
C537        C538   1.410       .  A
C537        C542   1.404       .  A
C537        F544   1.357       .  S
C538        C539   1.412       .  A
C539        C540   1.402       .  A
C539        F546   1.358       .  S
C540        C541   1.402       .  A
C540        F545   1.357       .  S
C541        C542   1.404       .  A
C542        F543   1.357       .  S
C547        C548   1.407       .  A
C547        C552   1.397       .  A
C547        F554   1.358       .  S
C548        C549   1.410       .  A
C549        C550   1.407       .  A
C549        F556   1.358       .  S
C550        C551   1.409       .  A
C550        F555   1.357       .  S
C551        C552   1.407       .  A
C552        F553   1.357       .  S
C557        C558   1.400       .  A
C557        C562   1.399       .  A
C557        F564   1.357       .  S
C558        C559   1.402       .  A
C559        C560   1.401       .  A
C559        F566   1.357       .  S
C560        C561   1.414       .  A
C560        F565   1.358       .  S
C561        C562   1.414       .  A
C562        F563   1.358       .  S
C567        C568   1.411       .  A
C567        C572   1.400       .  A
C567        F574   1.358   1_556  S
C568        C569   1.413       .  A
C569        C570   1.407       .  A
C569        F576   1.358       .  S
C570        C571   1.407       .  A
C570        F575   1.357       .  S
C571        C572   1.407       .  A
C572        F573   1.357   1_556  S
C577        C578   1.414       .  A
C577        C582   1.401       .  A
C577        F584   1.357       .  S
C578        C579   1.417       .  A
C579        C580   1.407       .  A
C579        F586   1.358       .  S
C580        C581   1.403       .  A
C580        F585   1.357       .  S
C581        C582   1.400       .  A
C582        F583   1.357       .  S
C587        C588   1.400       .  A
C587        C592   1.404       .  A
C587        F594   1.357       .  S
C588        C589   1.403       .  A
C589        C590   1.403       .  A
C589        F596   1.357       .  S
C590        C591   1.414       .  A
C590        F595   1.358       .  S
C591        C592   1.417       .  A
C592        F593   1.358       .  S
C597        C598   1.412       .  A
C597        C602   1.399       .  A
C597        F604   1.357       .  S
C598        C599   1.411       .  A
C599        C600   1.399       .  A
C599        F606   1.356       .  S
C600        C601   1.411       .  A
C600        F605   1.356       .  S
C601        C602   1.410       .  A
C602        F603   1.356       .  S
C607        C608   1.411       .  A
C607        C612   1.397       .  A
C607        F614   1.357       .  S
C608        C609   1.410       .  A
C609        C610   1.398       .  A
C609        F616   1.357       .  S
C610        C611   1.412       .  A
C610        F615   1.357       .  S
C611        C612   1.409       .  A
C612        F613   1.357       .  S
C617        C618   1.405       .  A
C617        C622   1.401       .  A
C617        F624   1.358       .  S
C618        C619   1.403       .  A
C619        C620   1.406       .  A
C619        F626   1.357       .  S
C620        C621   1.414       .  A
C620        F625   1.357       .  S
C621        C622   1.413       .  A
C622        F623   1.358       .  S
C627        C628   1.404       .  A
C627        C632   1.408       .  A
C627        F634   1.357       .  S
C628        C629   1.403       .  A
C629        C630   1.406       .  A
C629        F636   1.357       .  S
C630        C631   1.415       .  A
C630        F635   1.357       .  S
C631        C632   1.417       .  A
C632        F633   1.358       .  S
C637        C638   1.411       .  A
C637        C642   1.408       .  A
C637        F644   1.357       .  S
C638        C639   1.412       .  A
C639        C640   1.404       .  A
C639        F646   1.358       .  S
C640        C641   1.405       .  A
C640        F645   1.358       .  S
C641        C642   1.404       .  A
C642        F643   1.357       .  S
C647        C648   1.413       .  A
C647        C652   1.399       .  A
C647        F654   1.358   1_554  S
C648        C649   1.414       .  A
C649        C650   1.403       .  A
C649        F656   1.358       .  S
C650        C651   1.402       .  A
C650        F655   1.357       .  S
C651        C652   1.401       .  A
C652        F653   1.357       .  S
C657        C658   1.411       .  A
C657        C662   1.406       .  A
C657        F664   1.358       .  S
C658        C659   1.409       .  A
C659        C660   1.400       .  A
C659        F666   1.358   1_554  S
C660        C661   1.408       .  A
C660        F665   1.357   1_554  S
C661        C662   1.410       .  A
C662        F663   1.357       .  S
C667        C668   1.403       .  A
C667        C672   1.406       .  A
C667        F674   1.357       .  S
C668        C669   1.402       .  A
C669        C670   1.400       .  A
C669        F676   1.357       .  S
C670        C671   1.414       .  A
C670        F675   1.358       .  S
C671        C672   1.415       .  A
C672        F673   1.357       .  S
C677        C678   1.412       .  A
C677        C682   1.401       .  A
C677        F684   1.356       .  S
C678        C679   1.411       .  A
C679        C680   1.399       .  A
C679        F686   1.357       .  S
C680        C681   1.411       .  A
C680        F685   1.358       .  S
C681        C682   1.410       .  A
C682        F683   1.356       .  S
C687        C688   1.411       .  A
C687        C692   1.398       .  A
C687        F694   1.356       .  S
C688        C689   1.409       .  A
C689        C690   1.397       .  A
C689        F696   1.357       .  S
C690        C691   1.412       .  A
C690        F695   1.357       .  S
C691        C692   1.411       .  A
C692        F693   1.356       .  S
C697        C699   1.549       .  S
C697        C701   1.553       .  S
C697        C700   1.539       .  S
C697       C1036   1.528       .  S
C698        C702   1.532       .  S
C698        C704   1.545       .  S
C698        C703   1.546       .  S
C698       C1029   1.532   1_554  S
C699        C707   1.389       .  A
C699        C702   1.390       .  A
C700        C711   1.385       .  A
C700        C703   1.394       .  A
C701        C715   1.388       .  A
C701        C704   1.394       .  A
C702        C705   1.376       .  A
C703        C709   1.381       .  A
C704        C712   1.381       .  A
C705        N706   1.356       .  A
C705        H718   1.083   1_554  S
N706        C707   1.360       .  A
N706        C999   1.440       .  S
C707        H708   1.082       .  S
C709        N710   1.358       .  A
C709        H719   1.082   1_554  S
N710        C711   1.358       .  A
N710       C1016   1.441       .  S
C711        H717   1.082       .  S
C712        N713   1.358       .  A
C712        H714   1.081   1_554  S
N713        C715   1.361       .  A
N713       C1009   1.448       .  S
C715        H716   1.082       .  S
C720        C722   1.542       .  S
C720        C724   1.531       .  S
C720        C723   1.547       .  S
C720       C1039   1.529       .  S
C721        C725   1.545       .  S
C721        C727   1.554       .  S
C721        C726   1.559       .  S
C721       C1026   1.531       .  S
C722        C730   1.381       .  A
C722        C725   1.392       .  A
C723        C734   1.383       .  A
C723        C726   1.395       .  A
C724        C738   1.377       .  A
C724        C727   1.391       .  A
C725        C728   1.388       .  A
C726        C732   1.395       .  A
C727        C735   1.393       .  A
C728        N729   1.360       .  A
C728        H741   1.082       .  S
N729        C730   1.356       .  A
N729        C966   1.439       .  S
C730        H731   1.082       .  S
C732        N733   1.362       .  A
C732        H742   1.082       .  S
N733        C734   1.356       .  A
N733        C976   1.446       .  S
C734        H740   1.082       .  S
C735        N736   1.362       .  A
C735        H737   1.081       .  S
N736        C738   1.354       .  A
N736        C989   1.441       .  S
C738        H739   1.083       .  S
C743        C745   1.528       .  S
C743        C747   1.539       .  S
C743        C746   1.541       .  S
C743        C956   1.528   1_556  S
C744        C748   1.554       .  S
C744        C750   1.543       .  S
C744        C749   1.560       .  S
C744        C949   1.533       .  S
C745        C753   1.375       .  A
C745        C748   1.392       .  A
C746        C757   1.380       .  A
C746        C749   1.398       .  A
C747        C761   1.377       .  A
C747        C750   1.390       .  A
C748        C751   1.391       .  A
C749        C755   1.392       .  A
C750        C758   1.387       .  A
C751        N752   1.360       .  A
C751        H764   1.081       .  S
N752        C753   1.354       .  A
N752        C936   1.437       .  S
C753        H754   1.083   1_556  S
C755        N756   1.359       .  A
C755        H765   1.082       .  S
N756        C757   1.354       .  A
N756        C929   1.441       .  S
C757        H763   1.081   1_556  S
C758        N759   1.364       .  A
C758        H760   1.082       .  S
N759        C761   1.357       .  A
N759        C919   1.447       .  S
C761        H762   1.082   1_556  S
C766        C768   1.534       .  S
C766        C770   1.550       .  S
C766        C769   1.544       .  S
C766        C959   1.527       .  S
C767        C771   1.545       .  S
C767        C773   1.545       .  S
C767        C772   1.535       .  S
C767        C946   1.533       .  S
C768        C776   1.379       .  A
C768        C771   1.393       .  A
C769        C780   1.385       .  A
C769        C772   1.393       .  A
C770        C784   1.386       .  A
C770        C773   1.397       .  A
C771        C774   1.382       .  A
C772        C778   1.377       .  A
C773        C781   1.381       .  A
C774        N775   1.358       .  A
C774        H787   1.082       .  S
N775        C776   1.355       .  A
N775        C906   1.435       .  S
C776        H777   1.082       .  S
C778        N779   1.356       .  A
C778        H788   1.083       .  S
N779        C780   1.358       .  A
N779        C889   1.436       .  S
C780        H786   1.082       .  S
C781        N782   1.355       .  A
C781        H783   1.081       .  S
N782        C784   1.356       .  A
N782        C899   1.436       .  S
C784        H785   1.082       .  S
O789       Mg791   2.165       .  S
O789      Mg1145   2.157   1_554  S
O789       C1172   1.237       .  S
C790        H829   1.082       .  S
C790        O803   1.237       .  S
C790        O827   1.270       .  A
Mg791       O835   2.333   1_554  S
O792       Mg817   2.146       .  S
O793        C824   1.271   1_545  A
O793       Mg817   2.302       .  S
C794        O796   1.275       .  A
C794        O808   1.278       .  A
C794        C926   1.501       .  S
O795        C823   1.271       .  A
O795      Mg1145   2.298       .  S
O796       Mg828   2.290       .  S
Mg797      O1137   2.153   1_546  S
Mg797       O803   2.145       .  S
Mg797      O1143   2.300   1_545  S
Mg797      O1159   2.264   1_545  S
Mg797       O799   2.305   1_556  S
C798        O836   1.276       .  A
C798        O804   1.277       .  A
C798        C996   1.496       .  S
O799        C806   1.276       .  A
C801       H1174   1.082       .  S
C801       O1163   1.237       .  S
C801        O816   1.271       .  A
O802        C825   1.270       .  A
O803       Mg817   2.158   1_556  S
O804       Mg834   2.317   1_554  S
C805        O818   1.276       .  A
C805        O810   1.279       .  A
C805        C916   1.497       .  S
C806        O833   1.276       .  A
C806       C1019   1.496       .  S
Mg807       O814   2.146       .  S
Mg807      O1163   2.155   1_554  S
Mg807       O808   2.322   1_554  S
Mg807      O1157   2.302       .  S
Mg807      O1184   2.269       .  S
O809        C813   1.272   1_655  A
O809      Mg1155   2.300   1_545  S
O810       Mg817   2.328   1_556  S
O811        C830   1.273       .  A
O811      Mg1145   2.264       .  S
O812        C832   1.278       .  A
O812       Mg828   2.315   1_554  S
O814       Mg828   2.155   1_554  S
O814        C825   1.236       .  S
O815      Mg1155   2.160   1_546  S
O815       Mg834   2.163       .  S
O815       C1149   1.237       .  S
O816       Mg828   2.302       .  S
Mg817       O833   2.294       .  S
H819       C1172   1.083       .  S
O820       Mg828   2.147       .  S
H822        C825   1.083       .  S
C824       H1167   1.082       .  S
C824       O1137   1.237       .  S
H826       C1149   1.082       .  S
C830        O835   1.279       .  A
C830        C939   1.488       .  S
O831        C832   1.277       .  A
C832       C1006   1.495       .  S
O836      Mg1155   2.291   1_545  S
O837       Mg839   2.156       .  S
C838        H877   1.082       .  S
C838        O851   1.236       .  S
C838        O875   1.271       .  A
Mg839      O1216   2.151   1_545  S
Mg839       O883   2.324       .  S
Mg839      O1227   2.262   1_545  S
Mg839      O1198   2.307   1_545  S
O840      Mg1230   2.153   1_545  S
O840       Mg865   2.156       .  S
O840       C1209   1.239   1_545  S
O841        C872   1.271       .  A
O841       Mg865   2.306       .  S
C842        O844   1.278       .  A
C842        O856   1.282       .  A
C842        C979   1.510       .  S
O843        C871   1.271       .  A
O844       Mg876   2.305       .  S
Mg845       O851   2.157       .  S
Mg845       O847   2.343       .  S
C846        O884   1.273       .  A
C846        O852   1.276       .  A
C846        C909   1.492       .  S
O847        C854   1.280       .  A
H848       C1209   1.082   1_545  S
C849        O864   1.270   1_455  A
O850        C873   1.271       .  A
O850      Mg1187   2.298       .  S
O851       Mg865   2.150       .  S
O852       Mg882   2.309       .  S
C853        O866   1.274       .  A
C853        O858   1.279       .  A
C853        C986   1.497       .  S
C854        O881   1.274       .  A
C854        C886   1.487       .  S
Mg855       O862   2.140       .  S
Mg855       O856   2.355       .  S
O857        C861   1.273       .  A
O858       Mg865   2.341       .  S
O859        C878   1.273       .  A
O860        C880   1.279       .  A
O860       Mg876   2.328       .  S
C861       H1196   1.082       .  S
C861       O1188   1.239       .  S
O862       Mg876   2.152       .  S
O862        C873   1.238       .  S
O863       Mg882   2.161       .  S
O864       Mg876   2.299       .  S
Mg865       O881   2.267       .  S
O866      Mg1230   2.290   1_545  S
O868      Mg1187   2.154       .  S
O868       Mg876   2.162       .  S
O868       C1219   1.237       .  S
H869       C1219   1.082       .  S
H870        C873   1.081       .  S
C871       H1217   1.082   1_545  S
C871       O1216   1.237   1_545  S
O875      Mg1230   2.303   1_545  S
C878        O883   1.277       .  A
C878        C969   1.500       .  S
O879        C880   1.275       .  A
O879      Mg1187   2.282       .  S
C880        C896   1.491       .  S
Mg882      O1188   2.154       .  S
Mg882      O1214   2.288       .  S
Mg882      O1223   2.299       .  S
C885        C886   1.409       .  A
C885        C890   1.404       .  A
C885        F892   1.357       .  S
C886        C887   1.411       .  A
C887        C888   1.400       .  A
C887        F894   1.358       .  S
C888        C889   1.401       .  A
C888        F893   1.357       .  S
C889        C890   1.404       .  A
C890        F891   1.357       .  S
C895        C896   1.412       .  A
C895        C900   1.404       .  A
C895        F902   1.358       .  S
C896        C897   1.412       .  A
C897        C898   1.401       .  A
C897        F904   1.358       .  S
C898        C899   1.401       .  A
C898        F903   1.357       .  S
C899        C900   1.403       .  A
C900        F901   1.357       .  S
C905        C906   1.399       .  A
C905        C910   1.398       .  A
C905        F912   1.357       .  S
C906        C907   1.402       .  A
C907        C908   1.402       .  A
C907        F914   1.357       .  S
C908        C909   1.414       .  A
C908        F913   1.358       .  S
C909        C910   1.413       .  A
C910        F911   1.358       .  S
C915        C916   1.411       .  A
C915        C920   1.401       .  A
C915        F922   1.358   1_556  S
C916        C917   1.413       .  A
C917        C918   1.407       .  A
C917        F924   1.358       .  S
C918        C919   1.407       .  A
C918        F923   1.357       .  S
C919        C920   1.407       .  A
C920        F921   1.357   1_556  S
C925        C926   1.414       .  A
C925        C930   1.401       .  A
C925        F932   1.358       .  S
C926        C927   1.416       .  A
C927        C928   1.407       .  A
C927        F934   1.358       .  S
C928        C929   1.404       .  A
C928        F933   1.357       .  S
C929        C930   1.401       .  A
C930        F931   1.357       .  S
C935        C936   1.401       .  A
C935        C940   1.400       .  A
C935        F942   1.357       .  S
C936        C937   1.404       .  A
C937        C938   1.405       .  A
C937        F944   1.357       .  S
C938        C939   1.410       .  A
C938        F943   1.358       .  S
C939        C940   1.411       .  A
C940        F941   1.358       .  S
C945        C946   1.411       .  A
C945        C950   1.399       .  A
C945        F952   1.357       .  S
C946        C947   1.411       .  A
C947        C948   1.401       .  A
C947        F954   1.356       .  S
C948        C949   1.411       .  A
C948        F953   1.356       .  S
C949        C950   1.410       .  A
C950        F951   1.356       .  S
C955        C956   1.410       .  A
C955        C960   1.396       .  A
C955        F962   1.357       .  S
C956        C957   1.410       .  A
C957        C958   1.399       .  A
C957        F964   1.357       .  S
C958        C959   1.412       .  A
C958        F963   1.356       .  S
C959        C960   1.409       .  A
C960        F961   1.357       .  S
C965        C966   1.403       .  A
C965        C970   1.404       .  A
C965        F972   1.357       .  S
C966        C967   1.400       .  A
C967        C968   1.403       .  A
C967        F974   1.357       .  S
C968        C969   1.415       .  A
C968        F973   1.357       .  S
C969        C970   1.415       .  A
C970        F971   1.358       .  S
C975        C976   1.404       .  A
C975        C980   1.409       .  A
C975        F982   1.357       .  S
C976        C977   1.403       .  A
C977        C978   1.407       .  A
C977        F984   1.357       .  S
C978        C979   1.416       .  A
C978        F983   1.357       .  S
C979        C980   1.417       .  A
C980        F981   1.358       .  S
C985        C986   1.412       .  A
C985        C990   1.407       .  A
C985        F992   1.357       .  S
C986        C987   1.413       .  A
C987        C988   1.404       .  A
C987        F994   1.358       .  S
C988        C989   1.404       .  A
C988        F993   1.358       .  S
C989        C990   1.403       .  A
C990        F991   1.357       .  S
C995        C996   1.413       .  A
C995       C1000   1.401       .  A
C995       F1002   1.358   1_554  S
C996        C997   1.413       .  A
C997        C998   1.404       .  A
C997       F1004   1.358       .  S
C998        C999   1.404       .  A
C998       F1003   1.357       .  S
C999       C1000   1.402       .  A
C1000      F1001   1.357       .  S
C1005      C1006   1.411       .  A
C1005      C1010   1.406       .  A
C1005      F1012   1.358       .  S
C1006      C1007   1.411       .  A
C1007      C1008   1.401       .  A
C1007      F1014   1.358   1_554  S
C1008      C1009   1.407       .  A
C1008      F1013   1.357   1_554  S
C1009      C1010   1.409       .  A
C1010      F1011   1.357       .  S
C1015      C1016   1.405       .  A
C1015      C1020   1.407       .  A
C1015      F1022   1.357       .  S
C1016      C1017   1.402       .  A
C1017      C1018   1.398       .  A
C1017      F1024   1.357       .  S
C1018      C1019   1.413       .  A
C1018      F1023   1.358       .  S
C1019      C1020   1.413       .  A
C1020      F1021   1.358       .  S
C1025      C1026   1.412       .  A
C1025      C1030   1.401       .  A
C1025      F1032   1.356       .  S
C1026      C1027   1.410       .  A
C1027      C1028   1.398       .  A
C1027      F1034   1.357       .  S
C1028      C1029   1.411       .  A
C1028      F1033   1.358       .  S
C1029      C1030   1.411       .  A
C1030      F1031   1.356       .  S
C1035      C1036   1.409       .  A
C1035      C1040   1.397       .  A
C1035      F1042   1.356       .  S
C1036      C1037   1.410       .  A
C1037      C1038   1.397       .  A
C1037      F1044   1.357       .  S
C1038      C1039   1.411       .  A
C1038      F1043   1.356       .  S
C1039      C1040   1.412       .  A
C1040      F1041   1.357       .  S
C1045      C1047   1.548       .  S
C1045      C1049   1.553       .  S
C1045      C1048   1.538       .  S
C1045      C1384   1.529       .  S
C1046      C1050   1.532       .  S
C1046      C1052   1.547       .  S
C1046      C1051   1.547       .  S
C1046      C1377   1.534   1_554  S
C1047      C1055   1.388       .  A
C1047      C1050   1.392       .  A
C1048      C1059   1.383       .  A
C1048      C1051   1.395       .  A
C1049      C1063   1.388       .  A
C1049      C1052   1.394       .  A
C1050      C1053   1.375       .  A
C1051      C1057   1.382       .  A
C1052      C1060   1.382       .  A
C1053      N1054   1.355       .  A
C1053      H1066   1.083   1_554  S
N1054      C1055   1.358       .  A
N1054      C1347   1.435       .  S
C1055      H1056   1.082       .  S
C1057      N1058   1.358       .  A
C1057      H1067   1.082   1_554  S
N1058      C1059   1.358       .  A
N1058      C1364   1.440       .  S
C1059      H1065   1.082       .  S
C1060      N1061   1.359       .  A
C1060      H1062   1.081   1_554  S
N1061      C1063   1.361       .  A
N1061      C1357   1.451       .  S
C1063      H1064   1.081       .  S
C1068      C1070   1.537       .  S
C1068      C1072   1.529       .  S
C1068      C1071   1.548       .  S
C1068      C1387   1.530       .  S
C1069      C1073   1.544       .  S
C1069      C1075   1.555       .  S
C1069      C1074   1.560       .  S
C1069      C1374   1.533       .  S
C1070      C1078   1.378       .  A
C1070      C1073   1.391       .  A
C1071      C1082   1.384       .  A
C1071      C1074   1.398       .  A
C1072      C1086   1.376       .  A
C1072      C1075   1.391       .  A
C1073      C1076   1.387       .  A
C1074      C1080   1.394       .  A
C1075      C1083   1.394       .  A
C1076      N1077   1.361       .  A
C1076      H1089   1.082       .  S
N1077      C1078   1.355       .  A
N1077      C1314   1.440       .  S
C1078      H1079   1.083       .  S
C1080      N1081   1.362       .  A
C1080      H1090   1.082       .  S
N1081      C1082   1.356       .  A
N1081      C1324   1.446       .  S
C1082      H1088   1.082       .  S
C1083      N1084   1.362       .  A
C1083      H1085   1.081       .  S
N1084      C1086   1.353       .  A
N1084      C1337   1.440       .  S
C1086      H1087   1.083       .  S
C1091      C1093   1.529       .  S
C1091      C1095   1.540       .  S
C1091      C1094   1.543       .  S
C1091      C1304   1.530   1_556  S
C1092      C1096   1.552       .  S
C1092      C1098   1.541       .  S
C1092      C1097   1.557       .  S
C1092      C1297   1.531       .  S
C1093      C1101   1.375       .  A
C1093      C1096   1.392       .  A
C1094      C1105   1.381       .  A
C1094      C1097   1.398       .  A
C1095      C1109   1.378       .  A
C1095      C1098   1.390       .  A
C1096      C1099   1.390       .  A
C1097      C1103   1.391       .  A
C1098      C1106   1.385       .  A
C1099      N1100   1.360       .  A
C1099      H1112   1.081       .  S
N1100      C1101   1.353       .  A
N1100      C1284   1.437       .  S
C1101      H1102   1.083   1_556  S
C1103      N1104   1.358       .  A
C1103      H1113   1.082       .  S
N1104      C1105   1.354       .  A
N1104      C1277   1.439       .  S
C1105      H1111   1.081   1_556  S
C1106      N1107   1.362       .  A
C1106      H1108   1.082       .  S
N1107      C1109   1.357       .  A
N1107      C1267   1.445       .  S
C1109      H1110   1.082   1_556  S
C1114      C1116   1.538       .  S
C1114      C1118   1.551       .  S
C1114      C1117   1.544       .  S
C1114      C1307   1.530       .  S
C1115      C1119   1.539       .  S
C1115      C1121   1.543       .  S
C1115      C1120   1.532       .  S
C1115      C1294   1.531       .  S
C1116      C1124   1.381       .  A
C1116      C1119   1.394       .  A
C1117      C1128   1.384       .  A
C1117      C1120   1.392       .  A
C1118      C1132   1.387       .  A
C1118      C1121   1.396       .  A
C1119      C1122   1.378       .  A
C1120      C1126   1.373       .  A
C1121      C1129   1.379       .  A
C1122      N1123   1.355       .  A
C1122      H1135   1.082       .  S
N1123      C1124   1.357       .  A
N1123      C1254   1.434       .  S
C1124      H1125   1.082       .  S
C1126      N1127   1.356       .  A
C1126      H1136   1.083       .  S
N1127      C1128   1.359       .  A
N1127      C1237   1.438       .  S
C1128      H1134   1.081       .  S
C1129      N1130   1.355       .  A
C1129      H1131   1.081       .  S
N1130      C1132   1.358       .  A
N1130      C1247   1.440       .  S
C1132      H1133   1.082       .  S
O1137     Mg1139   2.155       .  S
C1138      H1177   1.082       .  S
C1138      O1151   1.237       .  S
C1138      O1175   1.270       .  A
Mg1139     O1183   2.331   1_554  S
O1140     Mg1165   2.146       .  S
O1141      C1172   1.272       .  A
O1141     Mg1165   2.304       .  S
C1142      O1144   1.274       .  A
C1142      O1156   1.279       .  A
C1142      C1274   1.500       .  S
O1143      C1171   1.271       .  A
O1144     Mg1176   2.280       .  S
Mg1145     O1151   2.145       .  S
Mg1145     O1147   2.311   1_556  S
C1146      O1184   1.274       .  A
C1146      O1152   1.279       .  A
C1146      C1344   1.495       .  S
O1147      C1154   1.276       .  A
C1149      O1164   1.272   1_545  A
O1150      C1173   1.271       .  A
O1151     Mg1165   2.156   1_556  S
O1152     Mg1182   2.328   1_554  S
C1153      O1166   1.276       .  A
C1153      O1158   1.279       .  A
C1153      C1264   1.497       .  S
C1154      O1181   1.276       .  A
C1154      C1367   1.498       .  S
Mg1155     O1162   2.160       .  S
Mg1155     O1156   2.327   1_554  S
O1157      C1161   1.272       .  A
O1158     Mg1165   2.326   1_556  S
O1159      C1178   1.272       .  A
O1160      C1180   1.280       .  A
O1160     Mg1176   2.332   1_554  S
O1162     Mg1176   2.159   1_554  S
O1162      C1173   1.237       .  S
O1163     Mg1182   2.157       .  S
O1164     Mg1176   2.306       .  S
Mg1165     O1181   2.297       .  S
O1168     Mg1176   2.139       .  S
H1170      C1173   1.083       .  S
C1178      O1183   1.278       .  A
C1178      C1287   1.490       .  S
O1179      C1180   1.276       .  A
C1180      C1354   1.496       .  S
O1185     Mg1187   2.167       .  S
C1186      H1225   1.082       .  S
C1186      O1199   1.236       .  S
C1186      O1223   1.270       .  A
Mg1187     O1231   2.309       .  S
O1188     Mg1213   2.155       .  S
O1189      C1220   1.271       .  A
O1189     Mg1213   2.303       .  S
C1190      O1192   1.278       .  A
C1190      O1204   1.282       .  A
C1190      C1327   1.511       .  S
O1191      C1219   1.272       .  A
O1192     Mg1224   2.305       .  S
Mg1193     O1199   2.149       .  S
Mg1193     O1195   2.319       .  S
C1194      O1232   1.273       .  A
C1194      O1200   1.275       .  A
C1194      C1257   1.491       .  S
O1195      C1202   1.279       .  A
C1197      O1212   1.271   1_455  A
O1198      C1221   1.272       .  A
O1199     Mg1213   2.154       .  S
O1200     Mg1230   2.298       .  S
C1201      O1214   1.275       .  A
C1201      O1206   1.280       .  A
C1201      C1334   1.500       .  S
C1202      O1229   1.275       .  A
C1202      C1234   1.492       .  S
Mg1203     O1210   2.148       .  S
Mg1203     O1204   2.356       .  S
O1205      C1209   1.274       .  A
O1206     Mg1213   2.346       .  S
O1207      C1226   1.276       .  A
O1208      C1228   1.280       .  A
O1208     Mg1224   2.341       .  S
O1210     Mg1224   2.150       .  S
O1210      C1221   1.238       .  S
O1211     Mg1230   2.159       .  S
O1212     Mg1224   2.303       .  S
Mg1213     O1229   2.279       .  S
O1216     Mg1224   2.160       .  S
H1218      C1221   1.082       .  S
C1226      O1231   1.276       .  A
C1226      C1317   1.496       .  S
O1227      C1228   1.272       .  A
C1228      C1244   1.482       .  S
C1233      C1234   1.412       .  A
C1233      C1238   1.398       .  A
C1233      F1240   1.358       .  S
C1234      C1235   1.413       .  A
C1235      C1236   1.403       .  A
C1235      F1242   1.358       .  S
C1236      C1237   1.403       .  A
C1236      F1241   1.357       .  S
C1237      C1238   1.403       .  A
C1238      F1239   1.358       .  S
C1243      C1244   1.407       .  A
C1243      C1248   1.405       .  A
C1243      F1250   1.357       .  S
C1244      C1245   1.408       .  A
C1245      C1246   1.399       .  A
C1245      F1252   1.358       .  S
C1246      C1247   1.405       .  A
C1246      F1251   1.358       .  S
C1247      C1248   1.407       .  A
C1248      F1249   1.357       .  S
C1253      C1254   1.399       .  A
C1253      C1258   1.397       .  A
C1253      F1260   1.357       .  S
C1254      C1255   1.402       .  A
C1255      C1256   1.402       .  A
C1255      F1262   1.357       .  S
C1256      C1257   1.413       .  A
C1256      F1261   1.358       .  S
C1257      C1258   1.413       .  A
C1258      F1259   1.358       .  S
C1263      C1264   1.412       .  A
C1263      C1268   1.400       .  A
C1263      F1270   1.358   1_556  S
C1264      C1265   1.414       .  A
C1265      C1266   1.406       .  A
C1265      F1272   1.358       .  S
C1266      C1267   1.407       .  A
C1266      F1271   1.357       .  S
C1267      C1268   1.405       .  A
C1268      F1269   1.357   1_556  S
C1273      C1274   1.414       .  A
C1273      C1278   1.401       .  A
C1273      F1280   1.357       .  S
C1274      C1275   1.417       .  A
C1275      C1276   1.406       .  A
C1275      F1282   1.358       .  S
C1276      C1277   1.403       .  A
C1276      F1281   1.357       .  S
C1277      C1278   1.400       .  A
C1278      F1279   1.357       .  S
C1283      C1284   1.401       .  A
C1283      C1288   1.400       .  A
C1283      F1290   1.357       .  S
C1284      C1285   1.404       .  A
C1285      C1286   1.405       .  A
C1285      F1292   1.357       .  S
C1286      C1287   1.411       .  A
C1286      F1291   1.358       .  S
C1287      C1288   1.412       .  A
C1288      F1289   1.358       .  S
C1293      C1294   1.410       .  A
C1293      C1298   1.397       .  A
C1293      F1300   1.357       .  S
C1294      C1295   1.411       .  A
C1295      C1296   1.401       .  A
C1295      F1302   1.356       .  S
C1296      C1297   1.411       .  A
C1296      F1301   1.356       .  S
C1297      C1298   1.410       .  A
C1298      F1299   1.356       .  S
C1303      C1304   1.411       .  A
C1303      C1308   1.397       .  A
C1303      F1310   1.357       .  S
C1304      C1305   1.410       .  A
C1305      C1306   1.399       .  A
C1305      F1312   1.356       .  S
C1306      C1307   1.411       .  A
C1306      F1311   1.356       .  S
C1307      C1308   1.409       .  A
C1308      F1309   1.357       .  S
C1313      C1314   1.404       .  A
C1313      C1318   1.400       .  A
C1313      F1320   1.358       .  S
C1314      C1315   1.402       .  A
C1315      C1316   1.405       .  A
C1315      F1322   1.357       .  S
C1316      C1317   1.413       .  A
C1316      F1321   1.357       .  S
C1317      C1318   1.413       .  A
C1318      F1319   1.358       .  S
C1323      C1324   1.403       .  A
C1323      C1328   1.408       .  A
C1323      F1330   1.357       .  S
C1324      C1325   1.404       .  A
C1325      C1326   1.408       .  A
C1325      F1332   1.357       .  S
C1326      C1327   1.416       .  A
C1326      F1331   1.357       .  S
C1327      C1328   1.417       .  A
C1328      F1329   1.357       .  S
C1333      C1334   1.414       .  A
C1333      C1338   1.407       .  A
C1333      F1340   1.357       .  S
C1334      C1335   1.414       .  A
C1335      C1336   1.404       .  A
C1335      F1342   1.358       .  S
C1336      C1337   1.403       .  A
C1336      F1341   1.357       .  S
C1337      C1338   1.402       .  A
C1338      F1339   1.357       .  S
C1343      C1344   1.414       .  A
C1343      C1348   1.403       .  A
C1343      F1350   1.358       .  S
C1344      C1345   1.415       .  A
C1345      C1346   1.401       .  A
C1345      F1352   1.358       .  S
C1346      C1347   1.400       .  A
C1346      F1351   1.357       .  S
C1347      C1348   1.400       .  A
C1348      F1349   1.357       .  S
C1353      C1354   1.411       .  A
C1353      C1358   1.406       .  A
C1353      F1360   1.358       .  S
C1354      C1355   1.410       .  A
C1355      C1356   1.402       .  A
C1355      F1362   1.358   1_554  S
C1356      C1357   1.409       .  A
C1356      F1361   1.357   1_554  S
C1357      C1358   1.410       .  A
C1358      F1359   1.357       .  S
C1363      C1364   1.404       .  A
C1363      C1368   1.407       .  A
C1363      F1370   1.357       .  S
C1364      C1365   1.402       .  A
C1365      C1366   1.400       .  A
C1365      F1372   1.357       .  S
C1366      C1367   1.414       .  A
C1366      F1371   1.358       .  S
C1367      C1368   1.414       .  A
C1368      F1369   1.357       .  S
C1373      C1374   1.413       .  A
C1373      C1378   1.401       .  A
C1373      F1380   1.356       .  S
C1374      C1375   1.411       .  A
C1375      C1376   1.399       .  A
C1375      F1382   1.356       .  S
C1376      C1377   1.411       .  A
C1376      F1381   1.358       .  S
C1377      C1378   1.409       .  A
C1378      F1379   1.356       .  S
C1383      C1384   1.410       .  A
C1383      C1388   1.399       .  A
C1383      F1390   1.356       .  S
C1384      C1385   1.410       .  A
C1385      C1386   1.397       .  A
C1385      F1392   1.357       .  S
C1386      C1387   1.412       .  A
C1386      F1391   1.357       .  S
C1387      C1388   1.411       .  A
C1388      F1389   1.356       .  S
