geometry optimzed in LAMMPS
_audit_creation_date              2020-12-01 
_audit_creation_method            'lammps2cif' 
_symmetry_space_group_name_H-M    'P1' 
_symmetry_Int_Tables_number       1 
_symmetry_cell_setting            triclinic 
loop_ 
_symmetry_equiv_pos_as_xyz 
  x,y,z 
_cell_length_a                    53.59453029 
_cell_length_b                    53.63561135520142 
_cell_length_c                    29.214759919759523 
_cell_angle_alpha                 90.16942623232715 
_cell_angle_beta                  90.02629600862967 
_cell_angle_gamma                 119.96072804653078 
loop_ 
_atom_site_label 
_atom_site_type_symbol 
_atom_site_fract_x 
_atom_site_fract_y 
_atom_site_fract_z 
_atom_site_charge 
O1          O  0.02668919  0.30176256  0.99939088    -0.72500
O2          O  0.02579752  0.22630321  0.00226003    -0.73500
O3          O  0.02630756  0.26319217  0.93308573    -0.62100
O4          O  0.02637793  0.26487708  0.07029041    -0.70500
O5          O  0.47854886  0.24133657  0.07053125    -0.70000
O6          O  0.47847787  0.23960782  0.93296995    -0.61300
O7          O  0.47796387  0.20263504  0.00403349    -0.73800
O8          O  0.47884626  0.27789572  0.00104102    -0.72600
Cu9        Cu  0.02797519  0.26484840  0.00136115     1.04600
Cu10       Cu  0.47678426  0.23953915  0.00206479     1.04300
C11         C  0.00275429  0.30155670  0.99972381     0.93700
C12         C  0.00180556  0.20268172  0.00350215     0.92900
C13         C  0.00241380  0.25128749  0.91141303     0.85000
C14         C  0.00252636  0.25337883  0.09202414     0.91300
O15         O  0.02855731  0.30094272  0.50105356    -0.72500
O16         O  0.02757673  0.22564968  0.50429776    -0.73500
O17         O  0.02898564  0.26305719  0.43384185    -0.62100
O18         O  0.02699920  0.26339119  0.57140337    -0.70500
O19         O  0.47920280  0.23820502  0.56936531    -0.70000
O20         O  0.48123907  0.24157129  0.43227464    -0.61300
O21         O  0.47988111  0.20222416  0.49802714    -0.73800
O22         O  0.48073722  0.27742328  0.50374315    -0.72600
Cu23       Cu  0.02973240  0.26408074  0.50270904     1.04600
Cu24       Cu  0.47859326  0.23901838  0.50076606     1.04300
C25         C  0.50475393  0.30096860  0.50254676     0.93700
C26         C  0.50360184  0.20213608  0.50118110     0.92900
C27         C  0.50535924  0.25262311  0.41144704     0.85000
C28         C  0.50276089  0.25063654  0.59198462     0.91300
C29         C  0.02678862  0.02696391  0.00041250     0.02800
C30         C  0.02618594  0.50021044  0.99917757     0.02800
C31         C  0.49936515  0.47409879  0.99702102     0.02800
C32         C  0.47322792  0.47476030  0.99738936     0.02800
C33         C  0.47383902  0.50151803  0.99850166     0.02800
C34         C  0.50064564  0.02763822  0.00058485     0.02800
C35         C  0.47208639  0.47237547  0.50257359     0.02800
C36         C  0.49846441  0.47213373  0.50190085     0.02800
C37         C  0.02501324  0.49851249  0.50051951     0.02800
C38         C  0.02516742  0.02510417  0.50126336     0.02800
C39         C  0.49882708  0.02534608  0.50039365     0.02800
C40         C  0.47230932  0.49896331  0.50082738     0.02800
O41         O  0.29911654  0.02368111  0.99289680    -0.72500
O42         O  0.22460241  0.02430756  0.99348704    -0.73500
O43         O  0.26232646  0.02465446  0.06258066    -0.62100
O44         O  0.26143081  0.02344216  0.92533893    -0.70500
O45         O  0.23699190  0.47563998  0.92620814    -0.70000
O46         O  0.23838394  0.47685458  0.06374675    -0.61300
O47         O  0.20034668  0.47651565  0.99643613    -0.73800
O48         O  0.27479164  0.47587505  0.99512638    -0.72600
Cu49       Cu  0.26271102  0.02570145  0.99361441     1.04600
Cu50       Cu  0.23676761  0.47453951  0.99530855     1.04300
C51         C  0.29859917  0.49963989  0.99401301     0.93700
C52         C  0.20077917  0.50051473  0.99512735     0.92900
C53         C  0.25058062  0.50097784  0.08476858     0.85000
C54         C  0.24909197  0.49935528  0.90416118     0.91300
O55         O  0.29749553  0.02277422  0.49836606    -0.72500
O56         O  0.22128242  0.01986626  0.49194746    -0.73500
O57         O  0.25771667  0.02069498  0.56375848    -0.62100
O58         O  0.26095931  0.02169939  0.42620572    -0.70500
O59         O  0.23666901  0.47391919  0.42552117    -0.70000
O60         O  0.23693276  0.47301935  0.56266444    -0.61300
O61         O  0.19866858  0.47212837  0.49541393    -0.73800
O62         O  0.27501930  0.47508710  0.49308405    -0.72600
Cu63       Cu  0.26015835  0.02295756  0.49506963     1.04600
Cu64       Cu  0.23603763  0.47186773  0.49408874     1.04300
C65         C  0.29819408  0.99935035  0.49628698     0.93700
C66         C  0.19803403  0.99560093  0.49366393     0.92900
C67         C  0.24712006  0.99669411  0.58481013     0.85000
C68         C  0.24899901  0.99786913  0.40423881     0.91300
O69         O  0.20035205  0.22516558  0.00284622    -0.72500
O70         O  0.27449776  0.30084468  0.00226739    -0.73500
O71         O  0.23808170  0.26188594  0.93486897    -0.62100
O72         O  0.23670488  0.26410753  0.07217283    -0.70500
O73         O  0.26127735  0.24088032  0.07512717    -0.70000
O74         O  0.26248188  0.23848190  0.93779293    -0.61300
O75         O  0.29892942  0.27750647  0.00684117    -0.73800
O76         O  0.22476754  0.20182257  0.00766377    -0.72600
Cu77       Cu  0.23654338  0.26381327  0.00304816     1.04600
Cu78       Cu  0.26274213  0.23887068  0.00691532     1.04300
C79         C  0.20090254  0.20166229  0.00513745     0.93700
C80         C  0.29836979  0.30099659  0.00429904     0.92900
C81         C  0.25045605  0.24985408  0.91473652     0.85000
C82         C  0.24875870  0.25277229  0.09524640     0.91300
O83         O  0.27323364  0.29891401  0.50734261    -0.72500
O84         O  0.19841267  0.22389211  0.50203201    -0.73500
O85         O  0.23477630  0.26030890  0.57359017    -0.62100
O86         O  0.23672548  0.26244707  0.43622582    -0.70500
O87         O  0.25885366  0.23677610  0.43617590    -0.70000
O88         O  0.26056606  0.23831098  0.57359702    -0.61300
O89         O  0.22234091  0.20004732  0.50653138    -0.73800
O90         O  0.29703456  0.27494050  0.50280676    -0.72600
Cu91       Cu  0.23492524  0.26222254  0.50487673     1.04600
Cu92       Cu  0.26053948  0.23668038  0.50482742     1.04300
C93         C  0.29689709  0.29866231  0.50474279     0.93700
C94         C  0.19865438  0.20021940  0.50379720     0.92900
C95         C  0.24765742  0.24930237  0.59522831     0.85000
C96         C  0.24787185  0.24969182  0.41459492     0.91300
C97         C  0.24279851  0.25629217  0.79715415     0.30200
C98         C  0.23387378  0.26469195  0.75789843    -0.36100
C99         C  0.24084615  0.25701757  0.71595529     0.16200
C100        C  0.25563851  0.24213949  0.71277491     0.22000
C101        C  0.26456010  0.23370417  0.75211102    -0.34200
C102        C  0.25755369  0.24136758  0.79414140     0.16100
O103        O  0.23847357  0.26120670  0.83977586    -0.26200
C104        C  0.25059136  0.24929754  0.86450547     0.05900
C105        C  0.26283740  0.23661645  0.83798841    -0.31100
O106        O  0.25996965  0.23737553  0.66997694    -0.22900
C107        C  0.24774623  0.24932651  0.64551707    -0.02900
C108        C  0.23548733  0.26184268  0.67232067    -0.17400
H109        H  0.22229470  0.27639014  0.75993280     0.20600
H110        H  0.27616646  0.22203185  0.75008044     0.19000
H111        H  0.27392733  0.22552740  0.84936781     0.18900
H112        H  0.22437981  0.27297362  0.66122675     0.14800
C113        C  0.25573614  0.24571179  0.21283875     0.30200
C114        C  0.26452320  0.23719099  0.25210224    -0.36100
C115        C  0.25640091  0.24371530  0.29400176     0.16200
C116        C  0.24076589  0.25773976  0.29714586     0.22000
C117        C  0.23194713  0.26626522  0.25780391    -0.34200
C118        C  0.24004561  0.25968874  0.21580676     0.16100
O119        O  0.26087794  0.24160223  0.17024040    -0.26200
C120        C  0.24835266  0.25308228  0.14547705     0.05900
C121        C  0.23503138  0.26468708  0.17195176    -0.31100
O122        O  0.23564176  0.26170789  0.33991825    -0.22900
C123        C  0.24810638  0.25000144  0.36436676    -0.02900
C124        C  0.26133604  0.23846643  0.33761568    -0.17400
H125        H  0.27679710  0.22619471  0.25010347     0.20600
H126        H  0.21962898  0.27721279  0.25980353     0.19000
H127        H  0.22330171  0.27511968  0.16053665     0.18900
H128        H  0.27297341  0.22787603  0.34873334     0.14800
C129        C  0.24100719  0.48407503  0.78656720     0.30200
C130        C  0.23188341  0.46680032  0.74707310    -0.36100
C131        C  0.23932169  0.48151976  0.70523015     0.16200
C132        C  0.25465219  0.01118528  0.70243968     0.22000
C133        C  0.26381725  0.02842856  0.74187091    -0.34200
C134        C  0.25642836  0.01373047  0.78364400     0.16100
O135        O  0.23636955  0.47494537  0.82928237    -0.26200
C136        C  0.24894942  0.49908562  0.85391258     0.05900
C137        C  0.26181290  0.02385471  0.82732544    -0.31100
O138        O  0.25925860  0.02043890  0.65986293    -0.22900
C139        C  0.24682872  0.99641479  0.63502151    -0.02900
C140        C  0.23406885  0.47152157  0.66137907    -0.17400
H141        H  0.21986032  0.44354363  0.74883927     0.20600
H142        H  0.27585608  0.05168836  0.74010181     0.19000
H143        H  0.27332647  0.04605952  0.83859914     0.18900
H144        H  0.22268580  0.44936016  0.64986666     0.14800
C145        C  0.25623237  0.01307877  0.28680974     0.30200
C146        C  0.26383903  0.03040746  0.24761920    -0.36100
C147        C  0.25754800  0.01585457  0.20551498     0.16200
C148        C  0.24462182  0.48628915  0.20219899     0.22000
C149        C  0.23702520  0.46896718  0.24135976    -0.34200
C150        C  0.24330774  0.48352165  0.28342985     0.16100
O151        O  0.26005020  0.02211709  0.32964201    -0.26200
C152        C  0.24938884  0.99801403  0.35396440     0.05900
C153        C  0.23866445  0.47335001  0.32702378    -0.31100
O154        O  0.24052666  0.47719153  0.15943272    -0.22900
C155        C  0.25099551  0.50123577  0.13501247    -0.02900
C156        C  0.26190587  0.02597098  0.16184378    -0.17400
H157        H  0.27389644  0.05359656  0.24980320     0.20600
H158        H  0.22685056  0.44577305  0.23917660     0.19000
H159        H  0.22887399  0.45117300  0.33801512     0.18900
H160        H  0.27146344  0.04811253  0.15074976     0.14800
C161        C  0.13985966  0.13095736  0.51840645     0.30200
C162        C  0.12391534  0.10374354  0.53853978    -0.36100
C163        C  0.09606888  0.08622699  0.52116060     0.16200
C164        C  0.08492631  0.09456447  0.48562450     0.22000
C165        C  0.10065072  0.12198232  0.46604424    -0.34200
C166        C  0.12825880  0.13978718  0.48417252     0.16100
O167        O  0.16630240  0.15084629  0.52944402    -0.26200
C168        C  0.17142532  0.17287957  0.50262165     0.05900
C169        C  0.14853301  0.16733169  0.47388623    -0.31100
O170        O  0.05879995  0.07436075  0.47377485    -0.22900
C171        C  0.05293008  0.05288587  0.50249441    -0.02900
C172        C  0.07523867  0.05932194  0.53324501    -0.17400
H173        H  0.13256294  0.09677109  0.56596626     0.20600
H174        H  0.09192649  0.12897378  0.43877360     0.19000
H175        H  0.14723549  0.18143644  0.44875012     0.18900
H176        H  0.07610621  0.04589364  0.56007360     0.14800
C177        C  0.35633687  0.36775937  0.51936677     0.30200
C178        C  0.37267098  0.39507306  0.53939596    -0.36100
C179        C  0.40068285  0.41203194  0.52241560     0.16200
C180        C  0.41162747  0.40312089  0.48728965     0.22000
C181        C  0.39551681  0.37560418  0.46786659    -0.34200
C182        C  0.36775646  0.35834694  0.48562602     0.16100
O183        O  0.32970474  0.34826469  0.53013281    -0.26200
C184        C  0.32427989  0.32590536  0.50361365     0.05900
C185        C  0.34717030  0.33086407  0.47539124    -0.31100
O186        O  0.43793287  0.42291756  0.47559998    -0.22900
C187        C  0.44414203  0.44471812  0.50403975    -0.02900
C188        C  0.42185989  0.43885271  0.53449237    -0.17400
H189        H  0.36419207  0.40252493  0.56646985     0.20600
H190        H  0.40407189  0.36813265  0.44092773     0.19000
H191        H  0.34829546  0.31639232  0.45066415     0.18900
H192        H  0.42119977  0.45262116  0.56105091     0.14800
C193        C  0.13881574  0.00553750  0.47924784     0.30200
C194        C  0.12313374  0.01761294  0.46066668    -0.36100
C195        C  0.09543508  0.00738611  0.47844194     0.16200
C196        C  0.08421616  0.48728097  0.51296902     0.22000
C197        C  0.09961800  0.47467952  0.53081246    -0.34200
C198        C  0.12707116  0.48438079  0.51223766     0.16100
O199        O  0.16532573  0.01233478  0.46832964    -0.26200
C200        C  0.17034752  0.99483819  0.49390016     0.05900
C201        C  0.14729347  0.47681701  0.52165411    -0.31100
O202        O  0.05834614  0.48172818  0.52567098    -0.22900
C203        C  0.05265419  0.49813527  0.49838206    -0.02900
C204        C  0.07487995  0.01419906  0.46777385    -0.17400
H205        H  0.13193037  0.03387741  0.43428079     0.20600
H206        H  0.09083761  0.45850289  0.55732253     0.19000
H207        H  0.14602110  0.46111469  0.54614238     0.18900
H208        H  0.07586614  0.02901497  0.44180583     0.14800
C209        C  0.35801088  0.49054634  0.48161889     0.30200
C210        C  0.37422385  0.47947701  0.46166127    -0.36100
C211        C  0.40185660  0.48972425  0.47971980     0.16200
C212        C  0.41260809  0.00897353  0.51572615     0.22000
C213        C  0.39661526  0.02054379  0.53510659    -0.34200
C214        C  0.36915895  0.01078587  0.51629785     0.16100
O215        O  0.33155217  0.48369681  0.47027652    -0.26200
C216        C  0.32589368  0.00019538  0.49732969     0.05900
C217        C  0.34851278  0.01765634  0.52650958    -0.31100
O218        O  0.43860484  0.01472560  0.52820675    -0.22900
C219        C  0.44466851  0.49917604  0.49943421    -0.02900
C220        C  0.42272484  0.48361280  0.46800031    -0.17400
H221        H  0.36586796  0.46394521  0.43396575     0.20600
H222        H  0.40498389  0.03604494  0.56284000     0.19000
H223        H  0.34931604  0.03268482  0.55207804     0.18900
H224        H  0.42211113  0.46946598  0.44097114     0.14800
C225        C  0.08812178  0.09522776  0.98442889     0.30200
C226        C  0.10479920  0.12191789  0.96312368    -0.36100
C227        C  0.13146907  0.14036661  0.98354137     0.16200
C228        C  0.14143028  0.13282395  0.02165811     0.22000
C229        C  0.12445680  0.10625503  0.04349174    -0.34200
C230        C  0.09741383  0.08805364  0.02364943     0.16100
O231        O  0.06254186  0.07480287  0.97097898    -0.26200
C232        C  0.05482748  0.05444427  0.00250535     0.05900
C233        C  0.07573419  0.06154863  0.03627080    -0.31100
O234        O  0.16740428  0.15319974  0.03418537    -0.22900
C235        C  0.17376452  0.17417798  0.00420824    -0.02900
C236        C  0.15218353  0.16748694  0.97212912    -0.17400
H237        H  0.09740020  0.12793914  0.93289643     0.20600
H238        H  0.13174130  0.10027827  0.07390086     0.19000
H239        H  0.07508360  0.04887657  0.06548205     0.18900
H240        H  0.15204213  0.18057711  0.94410213     0.14800
C241        C  0.41227088  0.40673374  0.01658402     0.30200
C242        C  0.39608317  0.38034475  0.03892545    -0.36100
C243        C  0.36865420  0.36201923  0.02085832     0.16200
C244        C  0.35755942  0.36942198  0.98403113     0.22000
C245        C  0.37405030  0.39566603  0.96105655    -0.34200
C246        C  0.40185291  0.41371440  0.97847922     0.16100
O247        O  0.43829670  0.42709731  0.02815393    -0.26200
C248        C  0.44518743  0.44722710  0.99649062     0.05900
C249        C  0.42331102  0.43996309  0.96439406    -0.31100
O250        O  0.33108068  0.34918237  0.97368385    -0.22900
C251        C  0.32552155  0.32844285  0.00374672    -0.02900
C252        C  0.34813782  0.33513765  0.03369766    -0.17400
H253        H  0.40436872  0.37447208  0.06823689     0.20600
H254        H  0.36585498  0.40151600  0.93160002     0.19000
H255        H  0.42311192  0.45246666  0.93552885     0.18900
H256        H  0.34912738  0.32216424  0.06119294     0.14800
C257        C  0.13130460  0.48945804  0.01086468     0.30200
C258        C  0.10341049  0.47662475  0.02908278    -0.36100
C259        C  0.08657263  0.48851514  0.01507630     0.16200
C260        C  0.09619705  0.01090180  0.98432890     0.22000
C261        C  0.12430808  0.02421365  0.96702287    -0.34200
C262        C  0.14140192  0.01280019  0.98184475     0.16100
O263        O  0.15069657  0.48174073  0.01897730    -0.26200
C264        C  0.17360561  0.50075996  0.99559167     0.05900
C265        C  0.16918427  0.02070448  0.97208910    -0.31100
O266        O  0.07640426  0.01775471  0.97444019    -0.22900
C267        C  0.05383714  0.49983154  0.99969322    -0.02900
C268        C  0.05928286  0.48157363  0.02644888    -0.17400
H269        H  0.09541094  0.45866959  0.05248339     0.20600
H270        H  0.13226941  0.04217396  0.94363171     0.19000
H271        H  0.18412157  0.03813187  0.95041079     0.18900
H272        H  0.04512028  0.46534230  0.05047024     0.14800
C273        C  0.36819306  0.01068353  0.98052125     0.30200
C274        C  0.39627283  0.02353159  0.96312979    -0.36100
C275        C  0.41333425  0.01242416  0.97939215     0.16200
C276        C  0.40372941  0.49074581  0.01143166     0.22000
C277        C  0.37542400  0.47737557  0.02793654    -0.34200
C278        C  0.35812497  0.48801979  0.01089185     0.16100
O279        O  0.34869323  0.01797913  0.97069959    -0.26200
C280        C  0.32571331  0.49932610  0.99433213     0.05900
C281        C  0.33020848  0.48003342  0.01965284    -0.31100
O282        O  0.42366713  0.48441617  0.02298569    -0.22900
C283        C  0.44625658  0.50194788  0.99748571    -0.02900
C284        C  0.44080496  0.01952211  0.96911463    -0.17400
H285        H  0.40426331  0.04096966  0.93871529     0.21800
H286        H  0.36747204  0.45993785  0.05233792     0.19000
H287        H  0.31528140  0.46312171  0.04210470     0.18900
H288        H  0.45503530  0.03529291  0.94456386     0.14800
C289        C  0.01059289  0.09577879  0.51573557     0.30200
C290        C  0.02366646  0.12365341  0.53424980    -0.36100
C291        C  0.01362639  0.14152905  0.51748698     0.16200
C292        C  0.49175933  0.13238038  0.48553442     0.22000
C293        C  0.47922609  0.10475923  0.46620709    -0.34200
C294        C  0.48976227  0.08715413  0.48219223     0.16100
O295        O  0.01630806  0.07535566  0.52686313    -0.26200
C296        C  0.49923719  0.05340922  0.49959912     0.05900
C297        C  0.48268642  0.05988198  0.47039094    -0.31100
O298        O  0.48505341  0.15231898  0.47590418    -0.22900
C299        C  0.50328486  0.17468820  0.50129076    -0.02900
C300        C  0.02169413  0.16933278  0.52763025    -0.17400
H301        H  0.04047199  0.13088401  0.55990567     0.20600
H302        H  0.46244625  0.09750569  0.44050965     0.19000
H303        H  0.46748392  0.04640571  0.44439872     0.18900
H304        H  0.03820250  0.18368489  0.55134071     0.14800
C305        C  0.49295086  0.35886919  0.51827435     0.30200
C306        C  0.48012061  0.37377327  0.53722503    -0.36100
C307        C  0.48981750  0.40149722  0.52018076     0.16200
C308        C  0.01013508  0.41345582  0.48600980     0.22000
C309        C  0.02352427  0.39885535  0.46784666    -0.34200
C310        C  0.01434345  0.37137080  0.48568803     0.16100
O311        O  0.48673275  0.33247777  0.52850521    -0.26200
C312        C  0.50481371  0.32827901  0.50290493     0.05900
C313        C  0.02269341  0.35177959  0.47584773    -0.31100
O314        O  0.01534697  0.43933369  0.47437060    -0.22900
C315        C  0.49854463  0.44432883  0.50202327    -0.02900
C316        C  0.48251283  0.42157197  0.53176530    -0.17400
H317        H  0.46373695  0.36441392  0.56341823     0.20600
H318        H  0.03995333  0.40827672  0.44173155     0.19000
H319        H  0.03879105  0.35372747  0.45151793     0.18900
H320        H  0.46773436  0.42007208  0.55827506     0.14800
C321        C  0.48834810  0.24522293  0.79347396     0.30200
C322        C  0.47149794  0.23790853  0.75359482    -0.36100
C323        C  0.48657593  0.24418599  0.71208765     0.16200
C324        C  0.01618679  0.25692388  0.70994615     0.22000
C325        C  0.03301918  0.26429412  0.74977122    -0.34200
C326        C  0.01795023  0.25792626  0.79121957     0.16100
O327        O  0.47880253  0.24106736  0.83597567    -0.26200
C328        C  0.50263456  0.25126417  0.86115777     0.05900
C329        C  0.02760619  0.26205125  0.83513466    -0.31100
O330        O  0.02580836  0.26086182  0.66756426    -0.22900
C331        C  0.50205175  0.25042189  0.64220298    -0.02900
C332        C  0.47699285  0.23974271  0.66803044    -0.17400
H333        H  0.44827537  0.22790838  0.75483685     0.20600
H334        H  0.05623687  0.27421426  0.74852726     0.19000
H335        H  0.04964839  0.27148975  0.84692299     0.18900
H336        H  0.45498685  0.23021842  0.65604430     0.14800
C337        C  0.49080824  0.24763887  0.29388798     0.30200
C338        C  0.47351259  0.24042347  0.25457606    -0.36100
C339        C  0.48812371  0.24723939  0.21266237     0.16200
C340        C  0.01772323  0.26030527  0.20956469     0.22000
C341        C  0.03503191  0.26755234  0.24891487    -0.34200
C342        C  0.02041070  0.26069208  0.29087032     0.16100
O343        O  0.48164631  0.24307193  0.33654215    -0.26200
C344        C  0.50567462  0.25331871  0.36120642     0.05900
C345        C  0.03047387  0.26456934  0.33464052    -0.31100
O346        O  0.02679445  0.26443663  0.16681855    -0.22900
C347        C  0.50267722  0.25383438  0.14228118    -0.02900
C348        C  0.47796287  0.24287536  0.16898409    -0.17400
H349        H  0.45028422  0.23010525  0.25653532     0.20600
H350        H  0.05825045  0.27770201  0.24694911     0.19000
H351        H  0.05262020  0.27415139  0.34595851     0.18900
H352        H  0.45576996  0.23295988  0.15779358     0.14800
C353        C  0.01023243  0.09718700  0.98736786     0.30200
C354        C  0.02095890  0.12413615  0.96667682    -0.36100
C355        C  0.01164030  0.14211439  0.98545848     0.16200
C356        C  0.49248022  0.13392044  0.02145210     0.22000
C357        C  0.48219321  0.10708390  0.04283042    -0.34200
C358        C  0.49213786  0.08934021  0.02467650     0.16100
O359        O  0.01562794  0.07685861  0.97438132    -0.26200
C360        C  0.50146753  0.05579515  0.00427914     0.05900
C361        C  0.48658257  0.06248451  0.03673497    -0.31100
O362        O  0.48600529  0.15393523  0.03240405    -0.22900
C363        C  0.50173695  0.17531815  0.00361315    -0.02900
C364        C  0.01818903  0.16923808  0.97386425    -0.17400
H365        H  0.03553183  0.13060687  0.93785763     0.20600
H366        H  0.46749352  0.10050923  0.07148850     0.19000
H367        H  0.47295609  0.04911243  0.06417880     0.18900
H368        H  0.03252270  0.18272516  0.94712602     0.14800
C369        C  0.49096995  0.40520056  0.01186161     0.30200
C370        C  0.48167909  0.37899385  0.03428120    -0.36100
C371        C  0.49142654  0.36126005  0.01598557     0.16200
C372        C  0.00957112  0.36896500  0.97867824     0.22000
C373        C  0.01833420  0.39499331  0.95551839    -0.34200
C374        C  0.00804322  0.41252245  0.97334463     0.16100
O375        O  0.48544674  0.42547026  0.02462940    -0.26200
C376        C  0.49847790  0.44593615  0.99341759     0.05900
C377        C  0.01272336  0.43892411  0.96026310    -0.31100
O378        O  0.01667891  0.34931721  0.96839297    -0.22900
C379        C  0.50244514  0.32869701  0.99909190    -0.02900
C380        C  0.48627541  0.33486194  0.02930222    -0.17400
H381        H  0.46799963  0.37297415  0.06419209     0.20600
H382        H  0.03230320  0.40120839  0.92594951     0.19000
H383        H  0.02566764  0.45196596  0.93200317     0.18900
H384        H  0.47287582  0.32182531  0.05722717     0.14800
O385        O  0.02670493  0.80176507  0.99940386    -0.72500
O386        O  0.02580467  0.72630457  0.00230530    -0.73500
O387        O  0.02632193  0.76318679  0.93311459    -0.62100
O388        O  0.02638877  0.76488519  0.07031919    -0.70500
O389        O  0.47855950  0.74135061  0.07055703    -0.70000
O390        O  0.47849214  0.73959987  0.93299725    -0.61300
O391        O  0.47797072  0.70263861  0.00408431    -0.73800
O392        O  0.47886159  0.77789814  0.00104439    -0.72600
Cu393      Cu  0.02798749  0.76485002  0.00139047     1.04600
Cu394      Cu  0.47679622  0.73954250  0.00209175     1.04300
C395        C  0.00276964  0.80155848  0.99972389     0.93700
C396        C  0.00181181  0.70268468  0.00355607     0.92900
C397        C  0.00242848  0.75127836  0.91144092     0.85000
C398        C  0.00253663  0.75339104  0.09205114     0.91300
O399        O  0.02855000  0.80094304  0.50108583    -0.72500
O400        O  0.02759000  0.72565965  0.50430100    -0.73500
O401        O  0.02898749  0.76307112  0.43386379    -0.62100
O402        O  0.02700344  0.76338885  0.57142477    -0.70500
O403        O  0.47920750  0.73819585  0.56938934    -0.70000
O404        O  0.48123994  0.74157257  0.43229774    -0.61300
O405        O  0.47989392  0.70222556  0.49803750    -0.73800
O406        O  0.48072979  0.77741474  0.50377245    -0.72600
Cu407      Cu  0.02973534  0.76408659  0.50272944     1.04600
Cu408      Cu  0.47859593  0.73901425  0.50078869     1.04300
C409        C  0.50474377  0.80096304  0.50257458     0.93700
C410        C  0.50361798  0.70214323  0.50118008     0.92900
C411        C  0.50536045  0.75263327  0.41147007     0.85000
C412        C  0.50276612  0.75062808  0.59200784     0.91300
C413        C  0.02677554  0.52696498  0.00042319     0.02800
C414        C  0.02620305  0.00021141  0.99916128     0.02800
C415        C  0.49938368  0.97409840  0.99700512     0.02800
C416        C  0.47324524  0.97475718  0.99738306     0.02800
C417        C  0.47385323  0.00151360  0.99849194     0.02800
C418        C  0.50063309  0.52764043  0.00059934     0.02800
C419        C  0.47208192  0.97237398  0.50257955     0.02800
C420        C  0.49845918  0.97213132  0.50190756     0.02800
C421        C  0.02500828  0.99851023  0.50052834     0.02800
C422        C  0.02517260  0.52510604  0.50125301     0.02800
C423        C  0.49883265  0.52534829  0.50038458     0.02800
C424        C  0.47230412  0.99896084  0.50083198     0.02800
O425        O  0.29909205  0.52367558  0.99289043    -0.72500
O426        O  0.22457478  0.52429251  0.99348899    -0.73500
O427        O  0.26230376  0.52464554  0.06257660    -0.62100
O428        O  0.26139819  0.52342739  0.92533617    -0.70500
O429        O  0.23701917  0.97565476  0.92620697    -0.70000
O430        O  0.23840333  0.97686347  0.06374519    -0.61300
O431        O  0.20037131  0.97653073  0.99643173    -0.73800
O432        O  0.27480956  0.97588050  0.99512674    -0.72600
Cu433      Cu  0.26268397  0.52568999  0.99361104     1.04600
Cu434      Cu  0.23678967  0.97455098  0.99530707     1.04300
C435        C  0.29861898  0.99964290  0.99401346     0.93700
C436        C  0.20080559  0.00053053  0.99512314     0.92900
C437        C  0.25060079  0.00098563  0.08476992     0.85000
C438        C  0.24912553  0.99937074  0.90416195     0.91300
O439        O  0.29749891  0.52277799  0.49837793    -0.72500
O440        O  0.22128446  0.51986560  0.49194391    -0.73500
O441        O  0.25770979  0.52068748  0.56376208    -0.62100
O442        O  0.26096748  0.52170836  0.42620916    -0.70500
O443        O  0.23665803  0.97391019  0.42552533    -0.70000
O444        O  0.23693813  0.97302671  0.56266963    -0.61300
O445        O  0.19866568  0.97212939  0.49542920    -0.73800
O446        O  0.27501269  0.97508277  0.49308059    -0.72600
Cu447      Cu  0.26016028  0.52295858  0.49507421     1.04600
Cu448      Cu  0.23603333  0.97186658  0.49409456     1.04300
C449        C  0.29819964  0.49935533  0.49629670     0.93700
C450        C  0.19803643  0.49559977  0.49365156     0.92900
C451        C  0.24710967  0.49668476  0.58480920     0.85000
C452        C  0.24900721  0.49787944  0.40423834     0.91300
O453        O  0.20035347  0.72516810  0.00284945    -0.72500
O454        O  0.27450341  0.80084903  0.00229008    -0.73500
O455        O  0.23809152  0.76189397  0.93488128    -0.62100
O456        O  0.23670368  0.76410574  0.07218623    -0.70500
O457        O  0.26127375  0.74087622  0.07514000    -0.70000
O458        O  0.26249000  0.73848821  0.93780541    -0.61300
O459        O  0.29893334  0.77750933  0.00686387    -0.73800
O460        O  0.22476705  0.70182331  0.00766610    -0.72600
Cu461      Cu  0.23654730  0.76381660  0.00306115     1.04600
Cu462      Cu  0.26274402  0.73887222  0.00692802     1.04300
C463        C  0.20090218  0.70166357  0.00513675     0.93700
C464        C  0.29837526  0.80100047  0.00432382     0.92900
C465        C  0.25046670  0.74986282  0.91474872     0.85000
C466        C  0.24875457  0.75276741  0.09525964     0.91300
O467        O  0.27322172  0.79892073  0.50736372    -0.72500
O468        O  0.19841149  0.72388819  0.50203286    -0.73500
O469        O  0.23476525  0.76030717  0.57360213    -0.62100
O470        O  0.23672387  0.76245282  0.43623726    -0.70500
O471        O  0.25885632  0.73678586  0.43619029    -0.70000
O472        O  0.26056558  0.73832035  0.57360870    -0.61300
O473        O  0.22234870  0.70005257  0.50654004    -0.73800
O474        O  0.29702920  0.77495387  0.50282310    -0.72600
Cu475      Cu  0.23491810  0.76222395  0.50488827     1.04600
Cu476      Cu  0.26054094  0.73669041  0.50484051     1.04300
C477        C  0.29688717  0.79867311  0.50476332     0.93700
C478        C  0.19865958  0.70021861  0.50379719     0.92900
C479        C  0.24765232  0.74930663  0.59524004     0.85000
C480        C  0.24787202  0.74969867  0.41460796     0.91300
C481        C  0.24281703  0.75631135  0.79716678     0.30200
C482        C  0.23389364  0.76471385  0.75791299    -0.36100
C483        C  0.24085803  0.75703419  0.71596822     0.16200
C484        C  0.25564354  0.74214914  0.71278477     0.22000
C485        C  0.26456495  0.73371162  0.75211895    -0.34200
C486        C  0.25756523  0.74137962  0.79415132     0.16100
O487        O  0.23849418  0.76122626  0.83978920    -0.26200
C488        C  0.25060593  0.74931035  0.86451723     0.05900
C489        C  0.26284635  0.73662472  0.83799771    -0.31100
O490        O  0.25996705  0.73737977  0.66998583    -0.22900
C491        C  0.24774507  0.74933353  0.64552862    -0.02900
C492        C  0.23549542  0.76185706  0.67233511    -0.17400
H493        H  0.22231811  0.77641808  0.75995017     0.20600
H494        H  0.27616473  0.72203278  0.75008560     0.19000
H495        H  0.27393101  0.72552735  0.84937671     0.18900
H496        H  0.22438947  0.77299387  0.66124182     0.14800
C497        C  0.25571874  0.74569418  0.21285252     0.30200
C498        C  0.26450144  0.73716944  0.25211692    -0.36100
C499        C  0.25638611  0.74370228  0.29401609     0.16200
C500        C  0.24076054  0.75773681  0.29715816     0.22000
C501        C  0.23194503  0.76626426  0.25781529    -0.34200
C502        C  0.24003733  0.75968066  0.21581909     0.16100
O503        O  0.26086016  0.74158339  0.17025448    -0.26200
C504        C  0.24834369  0.75307237  0.14549035     0.05900
C505        C  0.23502857  0.76468365  0.17196420    -0.31100
O506        O  0.23564377  0.76171385  0.33992986    -0.22900
C507        C  0.24810400  0.75000358  0.36438010    -0.02900
C508        C  0.26132297  0.73845702  0.33763056    -0.17400
H509        H  0.27676797  0.72616768  0.25011950     0.20600
H510        H  0.21963457  0.77722170  0.25981369     0.19000
H511        H  0.22330716  0.77512605  0.16054774     0.18900
H512        H  0.27295664  0.72785942  0.34875176     0.14800
C513        C  0.24105463  0.98409083  0.78656816     0.30200
C514        C  0.23192848  0.96681590  0.74707509    -0.36100
C515        C  0.23935971  0.98153448  0.70523207     0.16200
C516        C  0.25461698  0.51117039  0.70243973     0.22000
C517        C  0.26377772  0.52841306  0.74187163    -0.34200
C518        C  0.25638308  0.51371446  0.78364401     0.16100
O519        O  0.23641539  0.97496162  0.82928336    -0.26200
C520        C  0.24899145  0.99910189  0.85391329     0.05900
C521        C  0.26177009  0.52383821  0.82732503    -0.31100
O522        O  0.25923345  0.52042517  0.65986393    -0.22900
C523        C  0.24680766  0.49640198  0.63502036    -0.02900
C524        C  0.23409795  0.97153530  0.66138223    -0.17400
H525        H  0.21990467  0.94355717  0.74884224     0.20600
H526        H  0.27581975  0.55167200  0.74010350     0.19000
H527        H  0.27328904  0.54604428  0.83859961     0.18900
H528        H  0.22271347  0.94937374  0.64987182     0.14800
C529        C  0.25622949  0.51308661  0.28680677     0.30200
C530        C  0.26384134  0.53041327  0.24761296    -0.36100
C531        C  0.25753979  0.51585614  0.20551112     0.16200
C532        C  0.24464477  0.98628900  0.20219765     0.22000
C533        C  0.23705393  0.96896425  0.24135559    -0.34200
C534        C  0.24332551  0.98351514  0.28342877     0.16100
O535        O  0.26005866  0.52212801  0.32963864    -0.26200
C536        C  0.24939028  0.49802526  0.35396355     0.05900
C537        C  0.23867995  0.97334112  0.32702197    -0.31100
O538        O  0.24055538  0.97719492  0.15942967    -0.22900
C539        C  0.25101365  0.00124030  0.13501389    -0.02900
C540        C  0.26190077  0.52596972  0.16183763    -0.17400
H541        H  0.27391081  0.55360253  0.24979249     0.20600
H542        H  0.22689120  0.94577327  0.23916819     0.19000
H543        H  0.22889741  0.95116276  0.33801155     0.18900
H544        H  0.27146842  0.54810928  0.15074020     0.14800
C545        C  0.13987155  0.63095082  0.51838463     0.30200
C546        C  0.12392458  0.60373861  0.53852107    -0.36100
C547        C  0.09607816  0.58622356  0.52114185     0.16200
C548        C  0.08493835  0.59455981  0.48559974     0.22000
C549        C  0.10066615  0.62197522  0.46601379    -0.34200
C550        C  0.12827346  0.63977948  0.48414408     0.16100
O551        O  0.16631166  0.65084187  0.52943070    -0.26200
C552        C  0.17143508  0.67287526  0.50260834     0.05900
C553        C  0.14854661  0.66732492  0.47386273    -0.31100
O554        O  0.05881004  0.57435855  0.47375409    -0.22900
C555        C  0.05293609  0.55288676  0.50248210    -0.02900
C556        C  0.07524379  0.55932221  0.53323490    -0.17400
H557        H  0.13257008  0.59676691  0.56595715     0.20600
H558        H  0.09194310  0.62896706  0.43873907     0.19000
H559        H  0.14724932  0.68143062  0.44872653     0.18900
H560        H  0.07610834  0.54589698  0.56006656     0.14800
C561        C  0.35633211  0.86776483  0.51939809     0.30200
C562        C  0.37267482  0.89507324  0.53944103    -0.36100
C563        C  0.40068216  0.91203341  0.52244303     0.16200
C564        C  0.41161448  0.90312821  0.48729100     0.22000
C565        C  0.39549510  0.87561736  0.46785245    -0.34200
C566        C  0.36773948  0.85835922  0.48562779     0.16100
O567        O  0.32970253  0.84826913  0.53017615    -0.26200
C568        C  0.32426797  0.82591680  0.50363220     0.05900
C569        C  0.34714879  0.83088063  0.47538373    -0.31100
O570        O  0.43791790  0.92292410  0.47559123    -0.22900
C571        C  0.44413760  0.94471839  0.50404999    -0.02900
C572        C  0.42186487  0.93885059  0.53452406    -0.17400
H573        H  0.36420626  0.90251976  0.56653553     0.20600
H574        H  0.40403940  0.86815143  0.44089529     0.19000
H575        H  0.34826510  0.81641387  0.45063478     0.18900
H576        H  0.42121479  0.95261537  0.56109710     0.14800
C577        C  0.13882173  0.50554227  0.47924017     0.30200
C578        C  0.12314074  0.51761945  0.46066166    -0.36100
C579        C  0.09544238  0.50739296  0.47843773     0.16200
C580        C  0.08420839  0.98727336  0.51297172     0.22000
C581        C  0.09961063  0.97467221  0.53081665    -0.34200
C582        C  0.12706538  0.98437603  0.51224499     0.16100
O583        O  0.16533024  0.51233639  0.46831774    -0.26200
C584        C  0.17035022  0.49483724  0.49388484     0.05900
C585        C  0.14729000  0.97681599  0.52166709    -0.31100
O586        O  0.05833929  0.98172248  0.52567629    -0.22900
C587        C  0.05264876  0.99813212  0.49839050    -0.02900
C588        C  0.07488558  0.51420273  0.46776571    -0.17400
H589        H  0.13193698  0.53388322  0.43427394     0.20600
H590        H  0.09083144  0.95849766  0.55732429     0.19000
H591        H  0.14601812  0.96111416  0.54615614     0.18900
H592        H  0.07587062  0.52901647  0.44179503     0.14800
C593        C  0.35799937  0.99052997  0.48162340     0.30200
C594        C  0.37420988  0.97945458  0.46167626    -0.36100
C595        C  0.40184553  0.98970892  0.47972753     0.16200
C596        C  0.41261517  0.50897826  0.51573225     0.22000
C597        C  0.39661980  0.52054295  0.53512451    -0.34200
C598        C  0.36916528  0.51079054  0.51631019     0.16100
O599        O  0.33153964  0.98367833  0.47028366    -0.26200
C600        C  0.32590073  0.50020289  0.49733924     0.05900
C601        C  0.34851602  0.51765537  0.52653178    -0.31100
O602        O  0.43861006  0.51472513  0.52821593    -0.22900
C603        C  0.44466181  0.99917081  0.49943561    -0.02900
C604        C  0.42271437  0.98359783  0.46801173    -0.17400
H605        H  0.36585057  0.96391421  0.43399186     0.20600
H606        H  0.40498348  0.53603285  0.56286862     0.19000
H607        H  0.34931448  0.53267467  0.55211576     0.18900
H608        H  0.42209854  0.96944472  0.44099020     0.14800
C609        C  0.08811288  0.59522994  0.98442998     0.30200
C610        C  0.10478853  0.62192298  0.96312957    -0.36100
C611        C  0.13146240  0.64036933  0.98354048     0.16200
C612        C  0.14142887  0.63282100  0.02164488     0.22000
C613        C  0.12445684  0.60625003  0.04347310    -0.34200
C614        C  0.09741006  0.58805174  0.02364078     0.16100
O615        O  0.06252969  0.57480659  0.97098680    -0.26200
C616        C  0.05481758  0.55444543  0.00250950     0.05900
C617        C  0.07573010  0.56154744  0.03626385    -0.31100
O618        O  0.16740499  0.65319489  0.03416824    -0.22900
C619        C  0.17376245  0.67417843  0.00420275    -0.02900
C620        C  0.15217646  0.66749201  0.97213397    -0.17400
H621        H  0.09738546  0.62794813  0.93291202     0.20600
H622        H  0.13174649  0.60026829  0.07387893     0.19000
H623        H  0.07508332  0.54887229  0.06547369     0.18900
H624        H  0.15203115  0.68058718  0.94411741     0.14800
C625        C  0.41228318  0.90673619  0.01660272     0.30200
C626        C  0.39608762  0.88035496  0.03896316    -0.36100
C627        C  0.36866070  0.86202581  0.02089025     0.16200
C628        C  0.35757533  0.86941869  0.98403824     0.22000
C629        C  0.37407395  0.89565437  0.96104547    -0.34200
C630        C  0.40187379  0.91370591  0.97847521     0.16100
O631        O  0.43830782  0.92710279  0.02817490    -0.26200
C632        C  0.44520569  0.94722250  0.99649043     0.05900
C633        C  0.42333572  0.93994946  0.96437868    -0.31100
O634        O  0.33109756  0.84917799  0.97368696    -0.22900
C635        C  0.32552857  0.82844712  0.00377291    -0.02900
C636        C  0.34813815  0.83514930  0.03374270    -0.17400
H637        H  0.40436643  0.87449005  0.06829526     0.20600
H638        H  0.36588558  0.90149667  0.93156932     0.19000
H639        H  0.42314248  0.95244526  0.93549782     0.18900
H640        H  0.34912024  0.82218218  0.06125848     0.14800
C641        C  0.13132978  0.98947178  0.01085520     0.30200
C642        C  0.10343549  0.97663748  0.02907126    -0.36100
C643        C  0.08659509  0.98852396  0.01506126     0.16200
C644        C  0.09617595  0.51089368  0.98434565     0.22000
C645        C  0.12428660  0.52420467  0.96703993    -0.34200
C646        C  0.14137806  0.51278809  0.98185827     0.16100
O647        O  0.15072339  0.98175741  0.01897225    -0.26200
C648        C  0.17363223  0.00077644  0.99558563     0.05900
C649        C  0.16915987  0.52069130  0.97210037    -0.31100
O650        O  0.07638494  0.51774863  0.97445754    -0.22900
C651        C  0.05385653  0.99983605  0.99967571    -0.02900
C652        C  0.05930443  0.98158003  0.02643177    -0.17400
H653        H  0.09543601  0.95868074  0.05247771     0.20600
H654        H  0.13224917  0.54216661  0.94365171     0.19000
H655        H  0.18409554  0.53811706  0.95042836     0.18900
H656        H  0.04514157  0.96534718  0.05045418     0.14800
C657        C  0.36818142  0.51069648  0.98054588     0.30200
C658        C  0.39626078  0.52354371  0.96315228    -0.36100
C659        C  0.41332387  0.51243865  0.97941757     0.16200
C660        C  0.40373769  0.99072770  0.01139922     0.22000
C661        C  0.37543045  0.97735370  0.02789813    -0.34200
C662        C  0.35813372  0.98800213  0.01085768     0.16100
O663        O  0.34867719  0.51798398  0.97071076    -0.26200
C664        C  0.32572920  0.99932193  0.99432073     0.05900
C665        C  0.33021923  0.98002047  0.01962616    -0.31100
O666        O  0.42367660  0.98440121  0.02295958    -0.22900
C667        C  0.44626891  0.00193898  0.99746947    -0.02900
C668        C  0.44079248  0.51953134  0.96913115    -0.17400
H669        H  0.40424867  0.54097752  0.93872769     0.21800
H670        H  0.36747870  0.95991741  0.05229160     0.19000
H671        H  0.31529181  0.96310876  0.04207503     0.18900
H672        H  0.45502075  0.53529762  0.94457495     0.14800
C673        C  0.01060880  0.59578512  0.51571343     0.30200
C674        C  0.02368718  0.62366104  0.53422289    -0.36100
C675        C  0.01365044  0.64153908  0.51745890     0.16200
C676        C  0.49178262  0.63239179  0.48550871     0.22000
C677        C  0.47924455  0.60476908  0.46618428    -0.34200
C678        C  0.48977695  0.58716101  0.48217257     0.16100
O679        O  0.01631974  0.57535990  0.52684520    -0.26200
C680        C  0.49924443  0.55341206  0.49958677     0.05900
C681        C  0.48269444  0.55988588  0.47037870    -0.31100
O682        O  0.48507577  0.65233053  0.47588422    -0.22900
C683        C  0.50330759  0.67469853  0.50127280    -0.02900
C684        C  0.02171844  0.66934232  0.52760633    -0.17400
H685        H  0.04049264  0.63089025  0.55987935     0.20600
H686        H  0.46246541  0.59751708  0.44049429     0.19000
H687        H  0.46748825  0.54640811  0.44438745     0.18900
H688        H  0.03822611  0.68369296  0.55132134     0.14800
C689        C  0.49292639  0.85885711  0.51826742     0.30200
C690        C  0.48009298  0.87376042  0.53720811    -0.36100
C691        C  0.48979695  0.90148703  0.52017109     0.16200
C692        C  0.01012296  0.91344866  0.48601278     0.22000
C693        C  0.02351471  0.89884848  0.46785788    -0.34200
C694        C  0.01432748  0.87136151  0.48569526     0.16100
O695        O  0.48670783  0.83246608  0.52850221    -0.26200
C696        C  0.50479740  0.82827044  0.50291957     0.05900
C697        C  0.02268261  0.85177242  0.47586859    -0.31100
O698        O  0.01534229  0.93933022  0.47438084    -0.22900
C699        C  0.49853666  0.94432474  0.50202693    -0.02900
C700        C  0.48249555  0.92156358  0.53175671    -0.17400
H701        H  0.46370298  0.86439911  0.56339514     0.20600
H702        H  0.03995140  0.90827249  0.44175745     0.19000
H703        H  0.03878718  0.85372321  0.45155708     0.18900
H704        H  0.46771308  0.92006200  0.55826261     0.14800
C705        C  0.48836058  0.74520057  0.79350128     0.30200
C706        C  0.47150823  0.73787915  0.75362353    -0.36100
C707        C  0.48658522  0.74416198  0.71211453     0.16200
C708        C  0.01619666  0.75691105  0.70997003     0.22000
C709        C  0.03303138  0.76428786  0.74979411    -0.34200
C710        C  0.01796325  0.75791469  0.79124454     0.16100
O711        O  0.47881590  0.74104405  0.83600368    -0.26200
C712        C  0.50264909  0.75125039  0.86118490     0.05900
C713        C  0.02762094  0.76204530  0.83515978    -0.31100
O714        O  0.02581707  0.76085500  0.66758660    -0.22900
C715        C  0.50205863  0.75040763  0.64222733    -0.02900
C716        C  0.47700035  0.73971747  0.66805837    -0.17400
H717        H  0.44828694  0.72787201  0.75486783     0.20600
H718        H  0.05624829  0.77421707  0.74854810     0.19000
H719        H  0.04966403  0.77149338  0.84694656     0.18900
H720        H  0.45499097  0.73018544  0.65607373     0.14800
C721        C  0.49081194  0.74765452  0.29391179     0.30200
C722        C  0.47351736  0.74043737  0.25459860    -0.36100
C723        C  0.48812997  0.74725390  0.21268647     0.16200
C724        C  0.01772978  0.76032120  0.20959155     0.22000
C725        C  0.03503752  0.76757051  0.24894290    -0.34200
C726        C  0.02041436  0.76071015  0.29089640     0.16100
O727        O  0.48164861  0.74308543  0.33656509    -0.26200
C728        C  0.50567662  0.75333374  0.36123055     0.05900
C729        C  0.03047683  0.76458791  0.33466699    -0.31100
O730        O  0.02680259  0.76445204  0.16684654    -0.22900
C731        C  0.50268595  0.75384863  0.14230740    -0.02900
C732        C  0.47797071  0.74288877  0.16900780    -0.17400
H733        H  0.45028895  0.73011706  0.25655570     0.20600
H734        H  0.05825486  0.77772092  0.24697944     0.19000
H735        H  0.05261957  0.77416928  0.34598464     0.18900
H736        H  0.45577655  0.73297117  0.15781469     0.14800
C737        C  0.01023241  0.59719315  0.98741528     0.30200
C738        C  0.02096649  0.62414574  0.96673782    -0.36100
C739        C  0.01164754  0.64212191  0.98552115     0.16200
C740        C  0.49247998  0.63392340  0.02150561     0.22000
C741        C  0.48218649  0.60708343  0.04287315    -0.34200
C742        C  0.49213142  0.58934109  0.02471702     0.16100
O743        O  0.01562457  0.57686482  0.97442015    -0.26200
C744        C  0.50145718  0.55579656  0.00430582     0.05900
C745        C  0.48656989  0.56248196  0.03676263    -0.31100
O746        O  0.48600346  0.65393705  0.03245521    -0.22900
C747        C  0.50174201  0.67532238  0.00367284    -0.02900
C748        C  0.01819965  0.66924618  0.97393192    -0.17400
H749        H  0.03554605  0.63062081  0.93792055     0.20600
H750        H  0.46747903  0.60050381  0.07152660     0.19000
H751        H  0.47293746  0.54910498  0.06419877     0.18900
H752        H  0.03253760  0.68273544  0.94720028     0.14800
C753        C  0.49097245  0.90519289  0.01181939     0.30200
C754        C  0.48167214  0.87898238  0.03423006    -0.36100
C755        C  0.49142472  0.86125135  0.01594312     0.16200
C756        C  0.00957994  0.86896026  0.97864894     0.22000
C757        C  0.01835016  0.89499152  0.95549428    -0.34200
C758        C  0.00805723  0.91252022  0.97331526     0.16100
O759        O  0.48545160  0.92546326  0.02459035    -0.26200
C760        C  0.49849692  0.94593649  0.99339483     0.05900
C761        C  0.01274841  0.93892784  0.96024574    -0.31100
O762        O  0.01669582  0.84931637  0.96837905    -0.22900
C763        C  0.50245726  0.82869612  0.99907575    -0.02900
C764        C  0.48627542  0.83485578  0.02926727    -0.17400
H765        H  0.46798651  0.87296028  0.06413288     0.20600
H766        H  0.03233056  0.90121161  0.92593564     0.19000
H767        H  0.02570205  0.95197398  0.93199859     0.18900
H768        H  0.47287179  0.82181884  0.05718739     0.14800
O769        O  0.52668927  0.30176259  0.99939108    -0.72500
O770        O  0.52579750  0.22630319  0.00226023    -0.73500
O771        O  0.52630750  0.26319210  0.93308578    -0.62100
O772        O  0.52637807  0.26487714  0.07029054    -0.70500
O773        O  0.97854882  0.24133658  0.07053117    -0.70000
O774        O  0.97847792  0.23960789  0.93296985    -0.61300
O775        O  0.97796391  0.20263507  0.00403354    -0.73800
O776        O  0.97884619  0.27789572  0.00104101    -0.72600
Cu777      Cu  0.52797523  0.26484842  0.00136123     1.04600
Cu778      Cu  0.97678424  0.23953917  0.00206477     1.04300
C779        C  0.50275436  0.30155671  0.99972383     0.93700
C780        C  0.50180551  0.20268170  0.00350216     0.92900
C781        C  0.50241375  0.25128750  0.91141310     0.85000
C782        C  0.50252641  0.25337883  0.09202421     0.91300
O783        O  0.52855722  0.30094272  0.50105354    -0.72500
O784        O  0.52757678  0.22564974  0.50429778    -0.73500
O785        O  0.52898556  0.26305718  0.43384187    -0.62100
O786        O  0.52699913  0.26339116  0.57140337    -0.70500
O787        O  0.97920286  0.23820512  0.56936533    -0.70000
O788        O  0.98123904  0.24157129  0.43227455    -0.61300
O789        O  0.97988105  0.20222413  0.49802714    -0.73800
O790        O  0.98073720  0.27742331  0.50374314    -0.72600
Cu791      Cu  0.52973238  0.26408074  0.50270904     1.04600
Cu792      Cu  0.97859323  0.23901838  0.50076603     1.04300
C793        C  0.00475399  0.30096860  0.50254680     0.93700
C794        C  0.00360179  0.20213604  0.50118111     0.92900
C795        C  0.00535924  0.25262310  0.41144701     0.85000
C796        C  0.00276099  0.25063659  0.59198462     0.91300
C797        C  0.52678859  0.02696390  0.00041251     0.02800
C798        C  0.52618593  0.50021046  0.99917756     0.02800
C799        C  0.99936516  0.47409881  0.99702105     0.02800
C800        C  0.97322797  0.47476035  0.99738933     0.02800
C801        C  0.97383905  0.50151805  0.99850159     0.02800
C802        C  0.00064562  0.02763820  0.00058486     0.02800
C803        C  0.97208639  0.47237545  0.50257358     0.02800
C804        C  0.99846439  0.47213367  0.50190080     0.02800
C805        C  0.52501331  0.49851255  0.50051955     0.02800
C806        C  0.52516746  0.02510417  0.50126339     0.02800
C807        C  0.99882703  0.02534608  0.50039364     0.02800
C808        C  0.97230937  0.49896333  0.50082738     0.02800
O809        O  0.79911658  0.02368113  0.99289671    -0.72500
O810        O  0.72460245  0.02430755  0.99348712    -0.73500
O811        O  0.76232657  0.02465446  0.06258066    -0.62100
O812        O  0.76143085  0.02344215  0.92533890    -0.70500
O813        O  0.73699199  0.47563998  0.92620814    -0.70000
O814        O  0.73838394  0.47685459  0.06374675    -0.61300
O815        O  0.70034668  0.47651565  0.99643606    -0.73800
O816        O  0.77479173  0.47587508  0.99512644    -0.72600
Cu817      Cu  0.76271105  0.02570145  0.99361440     1.04600
Cu818      Cu  0.73676765  0.47453953  0.99530855     1.04300
C819        C  0.79859926  0.49963991  0.99401300     0.93700
C820        C  0.70077919  0.50051472  0.99512734     0.92900
C821        C  0.75058063  0.50097784  0.08476858     0.85000
C822        C  0.74909197  0.49935528  0.90416118     0.91300
O823        O  0.79749555  0.02277423  0.49836604    -0.72500
O824        O  0.72128239  0.01986627  0.49194746    -0.73500
O825        O  0.75771665  0.02069498  0.56375848    -0.62100
O826        O  0.76095925  0.02169938  0.42620572    -0.70500
O827        O  0.73666907  0.47391918  0.42552118    -0.70000
O828        O  0.73693283  0.47301935  0.56266445    -0.61300
O829        O  0.69866861  0.47212837  0.49541397    -0.73800
O830        O  0.77501928  0.47508711  0.49308401    -0.72600
Cu831      Cu  0.76015834  0.02295755  0.49506963     1.04600
Cu832      Cu  0.73603765  0.47186772  0.49408875     1.04300
C833        C  0.79819411  0.99935037  0.49628693     0.93700
C834        C  0.69803404  0.99560093  0.49366391     0.92900
C835        C  0.74712007  0.99669411  0.58481012     0.85000
C836        C  0.74899908  0.99786913  0.40423881     0.91300
O837        O  0.70035196  0.22516556  0.00284621    -0.72500
O838        O  0.77449782  0.30084466  0.00226744    -0.73500
O839        O  0.73808171  0.26188588  0.93486896    -0.62100
O840        O  0.73670483  0.26410746  0.07217276    -0.70500
O841        O  0.76127736  0.24088035  0.07512705    -0.70000
O842        O  0.76248194  0.23848187  0.93779295    -0.61300
O843        O  0.79892947  0.27750646  0.00684117    -0.73800
O844        O  0.72476760  0.20182259  0.00766380    -0.72600
Cu845      Cu  0.73654334  0.26381325  0.00304816     1.04600
Cu846      Cu  0.76274214  0.23887068  0.00691533     1.04300
C847        C  0.70090256  0.20166229  0.00513747     0.93700
C848        C  0.79836986  0.30099657  0.00429907     0.92900
C849        C  0.75045618  0.24985409  0.91473653     0.85000
C850        C  0.74875871  0.25277229  0.09524632     0.91300
O851        O  0.77323359  0.29891394  0.50734265    -0.72500
O852        O  0.69841260  0.22389216  0.50203197    -0.73500
O853        O  0.73477624  0.26030889  0.57359012    -0.62100
O854        O  0.73672544  0.26244711  0.43622575    -0.70500
O855        O  0.75885362  0.23677606  0.43617595    -0.70000
O856        O  0.76056598  0.23831105  0.57359704    -0.61300
O857        O  0.72234084  0.20004736  0.50653143    -0.73800
O858        O  0.79703453  0.27494047  0.50280674    -0.72600
Cu859      Cu  0.73492523  0.26222255  0.50487671     1.04600
Cu860      Cu  0.76053945  0.23668038  0.50482743     1.04300
C861        C  0.79689706  0.29866225  0.50474283     0.93700
C862        C  0.69865431  0.20021944  0.50379723     0.92900
C863        C  0.74765732  0.24930236  0.59522833     0.85000
C864        C  0.74787178  0.24969183  0.41459494     0.91300
C865        C  0.74279845  0.25629211  0.79715422     0.30200
C866        C  0.73387381  0.26469186  0.75789850    -0.36100
C867        C  0.74084604  0.25701767  0.71595520     0.16200
C868        C  0.75563842  0.24213949  0.71277487     0.22000
C869        C  0.76456003  0.23370427  0.75211089    -0.34200
C870        C  0.75755383  0.24136757  0.79414149     0.16100
O871        O  0.73847361  0.26120666  0.83977591    -0.26200
C872        C  0.75059143  0.24929743  0.86450552     0.05900
C873        C  0.76283737  0.23661651  0.83798828    -0.31100
O874        O  0.75996960  0.23737559  0.66997697    -0.22900
C875        C  0.74774612  0.24932660  0.64551706    -0.02900
C876        C  0.73548731  0.26184262  0.67232076    -0.17400
H877        H  0.72229431  0.27639034  0.75993301     0.20600
H878        H  0.77616670  0.22203175  0.75007992     0.19000
H879        H  0.77392852  0.22552657  0.84936866     0.18900
H880        H  0.72437873  0.27297439  0.66122597     0.14800
C881        C  0.75573605  0.24571193  0.21283875     0.30200
C882        C  0.76452327  0.23719095  0.25210218    -0.36100
C883        C  0.75640086  0.24371528  0.29400195     0.16200
C884        C  0.74076594  0.25773977  0.29714596     0.22000
C885        C  0.73194712  0.26626520  0.25780397    -0.34200
C886        C  0.74004552  0.25968871  0.21580674     0.16100
O887        O  0.76087790  0.24160223  0.17024044    -0.26200
C888        C  0.74835265  0.25308230  0.14547701     0.05900
C889        C  0.73503137  0.26468702  0.17195177    -0.31100
O890        O  0.73564179  0.26170783  0.33991829    -0.22900
C891        C  0.74810658  0.25000139  0.36436682    -0.02900
C892        C  0.76133598  0.23846649  0.33761553    -0.17400
H893        H  0.77679578  0.22619566  0.25010353     0.20600
H894        H  0.71962887  0.27721277  0.25980358     0.19000
H895        H  0.72330148  0.27511970  0.16053657     0.18900
H896        H  0.77297478  0.22787502  0.34873432     0.14800
C897        C  0.74100720  0.48407504  0.78656720     0.30200
C898        C  0.73188345  0.46680032  0.74707310    -0.36100
C899        C  0.73932166  0.48151976  0.70523015     0.16200
C900        C  0.75465225  0.01118527  0.70243964     0.22000
C901        C  0.76381719  0.02842856  0.74187089    -0.34200
C902        C  0.75642833  0.01373046  0.78364399     0.16100
O903        O  0.73636954  0.47494537  0.82928237    -0.26200
C904        C  0.74894939  0.49908562  0.85391258     0.05900
C905        C  0.76181290  0.02385471  0.82732542    -0.31100
O906        O  0.75925862  0.02043890  0.65986292    -0.22900
C907        C  0.74682882  0.99641479  0.63502149    -0.02900
C908        C  0.73406881  0.47152157  0.66137907    -0.17400
H909        H  0.71986057  0.44354367  0.74883926     0.20600
H910        H  0.77585568  0.05168827  0.74010175     0.19000
H911        H  0.77332618  0.04605950  0.83859905     0.18900
H912        H  0.72268544  0.44936013  0.64986665     0.14800
C913        C  0.75623226  0.01307876  0.28680974     0.30200
C914        C  0.76383894  0.03040746  0.24761920    -0.36100
C915        C  0.75754803  0.01585456  0.20551499     0.16200
C916        C  0.74462170  0.48628916  0.20219899     0.22000
C917        C  0.73702511  0.46896718  0.24135975    -0.34200
C918        C  0.74330768  0.48352163  0.28342986     0.16100
O919        O  0.76005014  0.02211709  0.32964201    -0.26200
C920        C  0.74938879  0.99801403  0.35396440     0.05900
C921        C  0.73866441  0.47335002  0.32702376    -0.31100
O922        O  0.74052655  0.47719153  0.15943272    -0.22900
C923        C  0.75099543  0.50123579  0.13501247    -0.02900
C924        C  0.76190585  0.02597099  0.16184376    -0.17400
H925        H  0.77389631  0.05359653  0.24980319     0.20600
H926        H  0.72685050  0.44577304  0.23917659     0.19000
H927        H  0.72887418  0.45117282  0.33801520     0.18900
H928        H  0.77146365  0.04811233  0.15074986     0.14800
C929        C  0.63985959  0.13095736  0.51840641     0.30200
C930        C  0.62391533  0.10374351  0.53853982    -0.36100
C931        C  0.59606886  0.08622699  0.52116060     0.16200
C932        C  0.58492631  0.09456448  0.48562452     0.22000
C933        C  0.60065063  0.12198230  0.46604411    -0.34200
C934        C  0.62825875  0.13978719  0.48417234     0.16100
O935        O  0.66630233  0.15084630  0.52944399    -0.26200
C936        C  0.67142522  0.17287962  0.50262158     0.05900
C937        C  0.64853292  0.16733158  0.47388621    -0.31100
O938        O  0.55879995  0.07436077  0.47377493    -0.22900
C939        C  0.55293009  0.05288587  0.50249440    -0.02900
C940        C  0.57523862  0.05932196  0.53324498    -0.17400
H941        H  0.63256279  0.09677115  0.56596611     0.20600
H942        H  0.59192645  0.12897369  0.43877357     0.19000
H943        H  0.64723514  0.18143699  0.44874915     0.18900
H944        H  0.57610617  0.04589346  0.56007359     0.14800
C945        C  0.85633681  0.36775942  0.51936672     0.30200
C946        C  0.87267098  0.39507303  0.53939586    -0.36100
C947        C  0.90068280  0.41203187  0.52241552     0.16200
C948        C  0.91162751  0.40312085  0.48728942     0.22000
C949        C  0.89551673  0.37560428  0.46786678    -0.34200
C950        C  0.86775655  0.35834698  0.48562598     0.16100
O951        O  0.82970471  0.34826467  0.53013289    -0.26200
C952        C  0.82427983  0.32590538  0.50361377     0.05900
C953        C  0.84717028  0.33086400  0.47539123    -0.31100
O954        O  0.93793289  0.42291758  0.47559989    -0.22900
C955        C  0.94414207  0.44471809  0.50403961    -0.02900
C956        C  0.92185990  0.43885279  0.53449242    -0.17400
H957        H  0.86419188  0.40252503  0.56647026     0.20600
H958        H  0.90407276  0.36813202  0.44092567     0.19000
H959        H  0.84829527  0.31639301  0.45066521     0.18900
H960        H  0.92120002  0.45262045  0.56104984     0.14800
C961        C  0.63881576  0.00553751  0.47924782     0.30200
C962        C  0.62313377  0.01761295  0.46066666    -0.36100
C963        C  0.59543510  0.00738610  0.47844193     0.16200
C964        C  0.58421611  0.48728095  0.51296907     0.22000
C965        C  0.59961802  0.47467950  0.53081246    -0.34200
C966        C  0.62707113  0.48438093  0.51223731     0.16100
O967        O  0.66532577  0.01233479  0.46832963    -0.26200
C968        C  0.67034756  0.99483819  0.49390013     0.05900
C969        C  0.64729346  0.47681686  0.52165422    -0.31100
O970        O  0.55834608  0.48172815  0.52567102    -0.22900
C971        C  0.55265418  0.49813525  0.49838210    -0.02900
C972        C  0.57487997  0.01419903  0.46777391    -0.17400
H973        H  0.63193039  0.03387743  0.43428076     0.20600
H974        H  0.59083785  0.45850296  0.55732231     0.19000
H975        H  0.64602103  0.46111651  0.54613870     0.18900
H976        H  0.57586616  0.02901504  0.44180567     0.14800
C977        C  0.85801093  0.49054635  0.48161890     0.30200
C978        C  0.87422387  0.47947699  0.46166125    -0.36100
C979        C  0.90185662  0.48972423  0.47971977     0.16200
C980        C  0.91260806  0.00897352  0.51572615     0.22000
C981        C  0.89661523  0.02054376  0.53510657    -0.34200
C982        C  0.86915896  0.01078581  0.51629775     0.16100
O983        O  0.83155224  0.48369683  0.47027653    -0.26200
C984        C  0.82589370  0.00019539  0.49732963     0.05900
C985        C  0.84851287  0.01765641  0.52650956    -0.31100
O986        O  0.93860482  0.01472561  0.52820677    -0.22900
C987        C  0.94466859  0.49917605  0.49943419    -0.02900
C988        C  0.92272489  0.48361284  0.46800035    -0.17400
H989        H  0.86586791  0.46394518  0.43396570     0.20600
H990        H  0.90498389  0.03604495  0.56284001     0.19000
H991        H  0.84931620  0.03268443  0.55207734     0.18900
H992        H  0.92211113  0.46946593  0.44097098     0.14800
C993        C  0.58812185  0.09522772  0.98442905     0.30200
C994        C  0.60479914  0.12191797  0.96312347    -0.36100
C995        C  0.63146915  0.14036660  0.98354152     0.16200
C996        C  0.64143028  0.13282400  0.02165818     0.22000
C997        C  0.62445681  0.10625504  0.04349185    -0.34200
C998        C  0.59741379  0.08805364  0.02364944     0.16100
O999        O  0.56254187  0.07480288  0.97097898    -0.26200
C1000       C  0.55482745  0.05444425  0.00250536     0.05900
C1001       C  0.57573418  0.06154857  0.03627070    -0.31100
O1002       O  0.66740428  0.15319981  0.03418552    -0.22900
C1003       C  0.67376453  0.17417799  0.00420827    -0.02900
C1004       C  0.65218351  0.16748696  0.97212906    -0.17400
H1005       H  0.59740093  0.12793864  0.93289848     0.20600
H1006       H  0.63174120  0.10027839  0.07390049     0.19000
H1007       H  0.57508361  0.04887649  0.06548184     0.18900
H1008       H  0.65204215  0.18057691  0.94410211     0.14800
C1009       C  0.91227097  0.40673372  0.01658402     0.30200
C1010       C  0.89608319  0.38034479  0.03892536    -0.36100
C1011       C  0.86865431  0.36201922  0.02085835     0.16200
C1012       C  0.85755942  0.36942196  0.98403113     0.22000
C1013       C  0.87405031  0.39566598  0.96105655    -0.34200
C1014       C  0.90185288  0.41371440  0.97847926     0.16100
O1015       O  0.93829674  0.42709736  0.02815395    -0.26200
C1016       C  0.94518750  0.44722714  0.99649061     0.05900
C1017       C  0.92331103  0.43996310  0.96439416    -0.31100
O1018       O  0.83108071  0.34918235  0.97368390    -0.22900
C1019       C  0.82552162  0.32844283  0.00374672    -0.02900
C1020       C  0.84813787  0.33513770  0.03369772    -0.17400
H1021       H  0.90436907  0.37447191  0.06823772     0.20600
H1022       H  0.86585488  0.40151593  0.93159965     0.19000
H1023       H  0.92311188  0.45246671  0.93552892     0.18900
H1024       H  0.84912745  0.32216413  0.06119320     0.14800
C1025       C  0.63130460  0.48945804  0.01086468     0.30200
C1026       C  0.60341051  0.47662476  0.02908277    -0.36100
C1027       C  0.58657261  0.48851515  0.01507629     0.16200
C1028       C  0.59619702  0.01090177  0.98432892     0.22000
C1029       C  0.62430803  0.02421364  0.96702289    -0.34200
C1030       C  0.64140197  0.01280027  0.98184465     0.16100
O1031       O  0.65069655  0.48174070  0.01897732    -0.26200
C1032       C  0.67360563  0.50075997  0.99559161     0.05900
C1033       C  0.66918423  0.02070445  0.97208915    -0.31100
O1034       O  0.57640421  0.01775465  0.97444022    -0.22900
C1035       C  0.55383715  0.49983157  0.99969320    -0.02900
C1036       C  0.55928289  0.48157368  0.02644884    -0.17400
H1037       H  0.59541100  0.45866969  0.05248325     0.20600
H1038       H  0.63226931  0.04217409  0.94363154     0.19000
H1039       H  0.68412234  0.03813259  0.95040989     0.18900
H1040       H  0.54512011  0.46534213  0.05047055     0.14800
C1041       C  0.86819299  0.01068352  0.98052125     0.30200
C1042       C  0.89627277  0.02353157  0.96312980    -0.36100
C1043       C  0.91333425  0.01242413  0.97939218     0.16200
C1044       C  0.90372936  0.49074579  0.01143169     0.22000
C1045       C  0.87542398  0.47737553  0.02793660    -0.34200
C1046       C  0.85812493  0.48801972  0.01089194     0.16100
O1047       O  0.84869317  0.01797915  0.97069957    -0.26200
C1048       C  0.82571334  0.49932607  0.99433218     0.05900
C1049       C  0.83020853  0.48003347  0.01965279    -0.31100
O1050       O  0.92366709  0.48441618  0.02298569    -0.22900
C1051       C  0.94625658  0.50194790  0.99748570    -0.02900
C1052       C  0.94080496  0.01952208  0.96911466    -0.17400
H1053       H  0.90426319  0.04096953  0.93871546     0.21800
H1054       H  0.86747195  0.45993774  0.05233806     0.19000
H1055       H  0.81528080  0.46312125  0.04210534     0.18900
H1056       H  0.95503542  0.03529294  0.94456382     0.14800
C1057       C  0.51059292  0.09577881  0.51573565     0.30200
C1058       C  0.52366645  0.12365337  0.53424988    -0.36100
C1059       C  0.51362647  0.14152909  0.51748705     0.16200
C1060       C  0.99175937  0.13238037  0.48553436     0.22000
C1061       C  0.97922613  0.10475924  0.46620714    -0.34200
C1062       C  0.98976221  0.08715406  0.48219219     0.16100
O1063       O  0.51630806  0.07535566  0.52686321    -0.26200
C1064       C  0.99923715  0.05340920  0.49959897     0.05900
C1065       C  0.98268645  0.05988204  0.47039097    -0.31100
O1066       O  0.98505334  0.15231891  0.47590419    -0.22900
C1067       C  0.00328474  0.17468813  0.50129065    -0.02900
C1068       C  0.52169410  0.16933267  0.52763017    -0.17400
H1069       H  0.54047217  0.13088402  0.55990603     0.20600
H1070       H  0.96244612  0.09750560  0.44050973     0.19000
H1071       H  0.96748303  0.04640515  0.44439782     0.18900
H1072       H  0.53820357  0.18368557  0.55134181     0.14800
C1073       C  0.99295093  0.35886924  0.51827416     0.30200
C1074       C  0.98012060  0.37377326  0.53722507    -0.36100
C1075       C  0.98981753  0.40149732  0.52018079     0.16200
C1076       C  0.51013502  0.41345576  0.48600975     0.22000
C1077       C  0.52352424  0.39885533  0.46784657    -0.34200
C1078       C  0.51434335  0.37137077  0.48568799     0.16100
O1079       O  0.98673275  0.33247779  0.52850520    -0.26200
C1080       C  0.00481368  0.32827897  0.50290490     0.05900
C1081       C  0.52269343  0.35177962  0.47584766    -0.31100
O1082       O  0.51534695  0.43933368  0.47437056    -0.22900
C1083       C  0.99854458  0.44432880  0.50202343    -0.02900
C1084       C  0.98251294  0.42157197  0.53176509    -0.17400
H1085       H  0.96373791  0.36441441  0.56341701     0.20600
H1086       H  0.53995306  0.40827660  0.44173175     0.19000
H1087       H  0.53879089  0.35372747  0.45151792     0.18900
H1088       H  0.96773295  0.42007185  0.55827683     0.14800
C1089       C  0.98834824  0.24522292  0.79347401     0.30200
C1090       C  0.97149788  0.23790851  0.75359486    -0.36100
C1091       C  0.98657602  0.24418605  0.71208766     0.16200
C1092       C  0.51618676  0.25692388  0.70994616     0.22000
C1093       C  0.53301922  0.26429417  0.74977126    -0.34200
C1094       C  0.51795004  0.25792618  0.79121944     0.16100
O1095       O  0.97880270  0.24106744  0.83597568    -0.26200
C1096       C  0.00263485  0.25126426  0.86115778     0.05900
C1097       C  0.52760623  0.26205127  0.83513479    -0.31100
O1098       O  0.52580834  0.26086174  0.66756428    -0.22900
C1099       C  0.00205177  0.25042188  0.64220295    -0.02900
C1100       C  0.97699297  0.23974287  0.66803045    -0.17400
H1101       H  0.94827625  0.22790873  0.75483684     0.20600
H1102       H  0.55623652  0.27421423  0.74852741     0.19000
H1103       H  0.54964607  0.27148888  0.84692187     0.18900
H1104       H  0.95498682  0.23021848  0.65604421     0.14800
C1105       C  0.99080832  0.24763891  0.29388790     0.30200
C1106       C  0.97351275  0.24042356  0.25457605    -0.36100
C1107       C  0.98812353  0.24723936  0.21266222     0.16200
C1108       C  0.51772306  0.26030520  0.20956478     0.22000
C1109       C  0.53503222  0.26755245  0.24891496    -0.34200
C1110       C  0.52041035  0.26069193  0.29087039     0.16100
O1111       O  0.98164641  0.24307196  0.33654205    -0.26200
C1112       C  0.00567480  0.25331875  0.36120639     0.05900
C1113       C  0.53047390  0.26456937  0.33464070    -0.31100
O1114       O  0.52679456  0.26443669  0.16681863    -0.22900
C1115       C  0.00267698  0.25383430  0.14228110    -0.02900
C1116       C  0.97796301  0.24287540  0.16898422    -0.17400
H1117       H  0.95028376  0.23010507  0.25653543     0.20600
H1118       H  0.55824736  0.27770080  0.24694959     0.19000
H1119       H  0.55261855  0.27415084  0.34595823     0.18900
H1120       H  0.95576719  0.23295875  0.15779230     0.14800
C1121       C  0.51023239  0.09718700  0.98736803     0.30200
C1122       C  0.52095887  0.12413614  0.96667680    -0.36100
C1123       C  0.51164025  0.14211438  0.98545863     0.16200
C1124       C  0.99248047  0.13392054  0.02145185     0.22000
C1125       C  0.98219310  0.10708388  0.04283060    -0.34200
C1126       C  0.99213801  0.08934024  0.02467631     0.16100
O1127       O  0.51562796  0.07685865  0.97438129    -0.26200
C1128       C  0.00146745  0.05579508  0.00427921     0.05900
C1129       C  0.98658253  0.06248455  0.03673492    -0.31100
O1130       O  0.98600529  0.15393517  0.03240403    -0.22900
C1131       C  0.00173695  0.17531812  0.00361328    -0.02900
C1132       C  0.51818897  0.16923799  0.97386439    -0.17400
H1133       H  0.53553098  0.13060650  0.93785869     0.20600
H1134       H  0.96749552  0.10051024  0.07148532     0.19000
H1135       H  0.97295541  0.04911205  0.06417950     0.18900
H1136       H  0.53252354  0.18272571  0.94712503     0.14800
C1137       C  0.99097004  0.40520061  0.01186150     0.30200
C1138       C  0.98167894  0.37899378  0.03428136    -0.36100
C1139       C  0.99142658  0.36126006  0.01598540     0.16200
C1140       C  0.50957117  0.36896503  0.97867826     0.22000
C1141       C  0.51833419  0.39499329  0.95551854    -0.34200
C1142       C  0.50804331  0.41252244  0.97334467     0.16100
O1143       O  0.98544673  0.42547026  0.02462947    -0.26200
C1144       C  0.99847781  0.44593612  0.99341756     0.05900
C1145       C  0.51272335  0.43892404  0.96026307    -0.31100
O1146       O  0.51667896  0.34931724  0.96839297    -0.22900
C1147       C  0.00244501  0.32869697  0.99909189    -0.02900
C1148       C  0.98627539  0.33486198  0.02930224    -0.17400
H1149       H  0.96800083  0.37297463  0.06419002     0.20600
H1150       H  0.53230353  0.40120852  0.92594903     0.19000
H1151       H  0.52566780  0.45196603  0.93200295     0.18900
H1152       H  0.97287567  0.32182523  0.05722744     0.14800
O1153       O  0.52670483  0.80176507  0.99940389    -0.72500
O1154       O  0.52580464  0.72630456  0.00230529    -0.73500
O1155       O  0.52632176  0.76318673  0.93311454    -0.62100
O1156       O  0.52638874  0.76488519  0.07031929    -0.70500
O1157       O  0.97855952  0.74135061  0.07055713    -0.70000
O1158       O  0.97849231  0.73959992  0.93299719    -0.61300
O1159       O  0.97797083  0.70263862  0.00408431    -0.73800
O1160       O  0.97886161  0.77789813  0.00104436    -0.72600
Cu1161     Cu  0.52798747  0.76485001  0.00139049     1.04600
Cu1162     Cu  0.97679623  0.73954250  0.00209175     1.04300
C1163       C  0.50276955  0.80155848  0.99972389     0.93700
C1164       C  0.50181173  0.70268467  0.00355605     0.92900
C1165       C  0.50242831  0.75127835  0.91144093     0.85000
C1166       C  0.50253659  0.75339104  0.09205116     0.91300
O1167       O  0.52855008  0.80094301  0.50108585    -0.72500
O1168       O  0.52759001  0.72565966  0.50430098    -0.73500
O1169       O  0.52898740  0.76307105  0.43386379    -0.62100
O1170       O  0.52700349  0.76338883  0.57142481    -0.70500
O1171       O  0.97920747  0.73819582  0.56938937    -0.70000
O1172       O  0.98124005  0.74157259  0.43229775    -0.61300
O1173       O  0.97989383  0.70222556  0.49803749    -0.73800
O1174       O  0.98072981  0.77741470  0.50377242    -0.72600
Cu1175     Cu  0.52973535  0.76408658  0.50272943     1.04600
Cu1176     Cu  0.97859593  0.73901426  0.50078868     1.04300
C1177       C  0.00474373  0.80096304  0.50257456     0.93700
C1178       C  0.00361791  0.70214323  0.50118009     0.92900
C1179       C  0.00536062  0.75263328  0.41147006     0.85000
C1180       C  0.00276607  0.75062808  0.59200784     0.91300
C1181       C  0.52677551  0.52696498  0.00042320     0.02800
C1182       C  0.52620304  0.00021139  0.99916129     0.02800
C1183       C  0.99938364  0.97409844  0.99700515     0.02800
C1184       C  0.97324518  0.97475720  0.99738313     0.02800
C1185       C  0.97385319  0.00151358  0.99849196     0.02800
C1186       C  0.00063310  0.52764044  0.00059935     0.02800
C1187       C  0.97208187  0.97237401  0.50257956     0.02800
C1188       C  0.99845915  0.97213134  0.50190748     0.02800
C1189       C  0.52500833  0.99851023  0.50052842     0.02800
C1190       C  0.52517266  0.52510606  0.50125302     0.02800
C1191       C  0.99883264  0.52534832  0.50038461     0.02800
C1192       C  0.97230406  0.99896086  0.50083201     0.02800
O1193       O  0.79909214  0.52367558  0.99289042    -0.72500
O1194       O  0.72457487  0.52429249  0.99348899    -0.73500
O1195       O  0.76230380  0.52464554  0.06257660    -0.62100
O1196       O  0.76139825  0.52342739  0.92533617    -0.70500
O1197       O  0.73701917  0.97565476  0.92620695    -0.70000
O1198       O  0.73840324  0.97686346  0.06374519    -0.61300
O1199       O  0.70037128  0.97653074  0.99643166    -0.73800
O1200       O  0.77480952  0.97588051  0.99512680    -0.72600
Cu1201     Cu  0.76268404  0.52568998  0.99361104     1.04600
Cu1202     Cu  0.73678966  0.97455098  0.99530707     1.04300
C1203       C  0.79861897  0.99964291  0.99401342     0.93700
C1204       C  0.70080556  0.00053054  0.99512315     0.92900
C1205       C  0.75060073  0.00098563  0.08476992     0.85000
C1206       C  0.74912550  0.99937074  0.90416193     0.91300
O1207       O  0.79749889  0.52277801  0.49837798    -0.72500
O1208       O  0.72128444  0.51986564  0.49194387    -0.73500
O1209       O  0.75770968  0.52068746  0.56376208    -0.62100
O1210       O  0.76096745  0.52170836  0.42620916    -0.70500
O1211       O  0.73665807  0.97391019  0.42552532    -0.70000
O1212       O  0.73693822  0.97302672  0.56266962    -0.61300
O1213       O  0.69866570  0.97212938  0.49542921    -0.73800
O1214       O  0.77501271  0.97508280  0.49308055    -0.72600
Cu1215     Cu  0.76016025  0.52295859  0.49507421     1.04600
Cu1216     Cu  0.73603332  0.97186657  0.49409455     1.04300
C1217       C  0.79819964  0.49935536  0.49629673     0.93700
C1218       C  0.69803644  0.49559974  0.49365150     0.92900
C1219       C  0.74710968  0.49668476  0.58480920     0.85000
C1220       C  0.74900712  0.49787945  0.40423834     0.91300
O1221       O  0.70035344  0.72516814  0.00284944    -0.72500
O1222       O  0.77450337  0.80084904  0.00229007    -0.73500
O1223       O  0.73809158  0.76189399  0.93488135    -0.62100
O1224       O  0.73670369  0.76410575  0.07218624    -0.70500
O1225       O  0.76127372  0.74087621  0.07514006    -0.70000
O1226       O  0.76248993  0.73848820  0.93780540    -0.61300
O1227       O  0.79893338  0.77750933  0.00686382    -0.73800
O1228       O  0.72476695  0.70182332  0.00766611    -0.72600
Cu1229     Cu  0.73654732  0.76381660  0.00306118     1.04600
Cu1230     Cu  0.76274401  0.73887222  0.00692803     1.04300
C1231       C  0.70090209  0.70166361  0.00513680     0.93700
C1232       C  0.79837525  0.80100047  0.00432388     0.92900
C1233       C  0.75046674  0.74986281  0.91474871     0.85000
C1234       C  0.74875454  0.75276741  0.09525968     0.91300
O1235       O  0.77322176  0.79892070  0.50736374    -0.72500
O1236       O  0.69841162  0.72388820  0.50203287    -0.73500
O1237       O  0.73476533  0.76030712  0.57360215    -0.62100
O1238       O  0.73672389  0.76245289  0.43623727    -0.70500
O1239       O  0.75885636  0.73678587  0.43619025    -0.70000
O1240       O  0.76056566  0.73832032  0.57360868    -0.61300
O1241       O  0.72234878  0.70005260  0.50654008    -0.73800
O1242       O  0.79702928  0.77495387  0.50282309    -0.72600
Cu1243     Cu  0.73491815  0.76222396  0.50488828     1.04600
Cu1244     Cu  0.76054099  0.73669041  0.50484050     1.04300
C1245       C  0.79688723  0.79867309  0.50476335     0.93700
C1246       C  0.69865968  0.70021861  0.50379720     0.92900
C1247       C  0.74765244  0.74930663  0.59524005     0.85000
C1248       C  0.74787199  0.74969865  0.41460798     0.91300
C1249       C  0.74281694  0.75631138  0.79716675     0.30200
C1250       C  0.73389367  0.76471378  0.75791294    -0.36100
C1251       C  0.74085804  0.75703415  0.71596821     0.16200
C1252       C  0.75564359  0.74214914  0.71278476     0.22000
C1253       C  0.76456491  0.73371169  0.75211899    -0.34200
C1254       C  0.75756515  0.74137974  0.79415118     0.16100
O1255       O  0.73849412  0.76122632  0.83978921    -0.26200
C1256       C  0.75060574  0.74931043  0.86451718     0.05900
C1257       C  0.76284644  0.73662470  0.83799783    -0.31100
O1258       O  0.75996707  0.73737972  0.66998586    -0.22900
C1259       C  0.74774515  0.74933352  0.64552864    -0.02900
C1260       C  0.73549537  0.76185703  0.67233505    -0.17400
H1261       H  0.72231784  0.77641822  0.75995021     0.20600
H1262       H  0.77616496  0.72203269  0.75008559     0.19000
H1263       H  0.77392952  0.72552856  0.84937547     0.18900
H1264       H  0.72438970  0.77299369  0.66124200     0.14800
C1265       C  0.75571888  0.74569409  0.21285242     0.30200
C1266       C  0.76450131  0.73716955  0.25211685    -0.36100
C1267       C  0.75638615  0.74370226  0.29401586     0.16200
C1268       C  0.74076054  0.75773685  0.29715814     0.22000
C1269       C  0.73194513  0.76626421  0.25781531    -0.34200
C1270       C  0.74003728  0.75968061  0.21581915     0.16100
O1271       O  0.76086016  0.74158334  0.17025438    -0.26200
C1272       C  0.74834369  0.75307234  0.14549034     0.05900
C1273       C  0.73502858  0.76468360  0.17196429    -0.31100
O1274       O  0.73564375  0.76171388  0.33992987    -0.22900
C1275       C  0.74810395  0.75000368  0.36438009    -0.02900
C1276       C  0.76132303  0.73845696  0.33763067    -0.17400
H1277       H  0.77676940  0.72616655  0.25011912     0.20600
H1278       H  0.71963413  0.77722197  0.25981391     0.19000
H1279       H  0.72330698  0.77512615  0.16054775     0.18900
H1280       H  0.77295549  0.72786012  0.34875098     0.14800
C1281       C  0.74105448  0.98409081  0.78656825     0.30200
C1282       C  0.73192850  0.96681591  0.74707513    -0.36100
C1283       C  0.73935967  0.98153448  0.70523208     0.16200
C1284       C  0.75461711  0.51117040  0.70243972     0.22000
C1285       C  0.76377776  0.52841306  0.74187163    -0.34200
C1286       C  0.75638310  0.51371447  0.78364401     0.16100
O1287       O  0.73641542  0.97496161  0.82928344    -0.26200
C1288       C  0.74899139  0.99910189  0.85391330     0.05900
C1289       C  0.76177010  0.52383821  0.82732504    -0.31100
O1290       O  0.75923341  0.52042516  0.65986392    -0.22900
C1291       C  0.74680765  0.49640198  0.63502036    -0.02900
C1292       C  0.73409803  0.97153529  0.66138220    -0.17400
H1293       H  0.71990441  0.94355713  0.74884232     0.20600
H1294       H  0.77582003  0.55167206  0.74010350     0.19000
H1295       H  0.77328876  0.54604423  0.83859959     0.18900
H1296       H  0.72271358  0.94937374  0.64987177     0.14800
C1297       C  0.75622947  0.51308660  0.28680678     0.30200
C1298       C  0.76384127  0.53041327  0.24761297    -0.36100
C1299       C  0.75753969  0.51585615  0.20551111     0.16200
C1300       C  0.74464462  0.98628899  0.20219766     0.22000
C1301       C  0.73705388  0.96896424  0.24135559    -0.34200
C1302       C  0.74332549  0.98351515  0.28342877     0.16100
O1303       O  0.76005861  0.52212800  0.32963865    -0.26200
C1304       C  0.74939037  0.49802525  0.35396356     0.05900
C1305       C  0.73867997  0.97334113  0.32702196    -0.31100
O1306       O  0.74055534  0.97719491  0.15942968    -0.22900
C1307       C  0.75101368  0.00124029  0.13501390    -0.02900
C1308       C  0.76190069  0.52596971  0.16183764    -0.17400
H1309       H  0.77391078  0.55360252  0.24979250     0.20600
H1310       H  0.72689118  0.94577331  0.23916820     0.19000
H1311       H  0.72889761  0.95116279  0.33801155     0.18900
H1312       H  0.77146823  0.54810945  0.15074012     0.14800
C1313       C  0.63987157  0.63095086  0.51838446     0.30200
C1314       C  0.62392461  0.60373855  0.53852119    -0.36100
C1315       C  0.59607809  0.58622357  0.52114166     0.16200
C1316       C  0.58493831  0.59455980  0.48559969     0.22000
C1317       C  0.60066615  0.62197522  0.46601370    -0.34200
C1318       C  0.62827347  0.63977950  0.48414405     0.16100
O1319       O  0.66631170  0.65084188  0.52943077    -0.26200
C1320       C  0.67143513  0.67287527  0.50260831     0.05900
C1321       C  0.64854665  0.66732489  0.47386270    -0.31100
O1322       O  0.55881003  0.57435853  0.47375410    -0.22900
C1323       C  0.55293613  0.55288675  0.50248209    -0.02900
C1324       C  0.57524378  0.55932222  0.53323483    -0.17400
H1325       H  0.63256934  0.59676740  0.56595557     0.20600
H1326       H  0.59194308  0.62896707  0.43873886     0.19000
H1327       H  0.64724935  0.68143069  0.44872624     0.18900
H1328       H  0.57610830  0.54589683  0.56006663     0.14800
C1329       C  0.85633211  0.86776481  0.51939818     0.30200
C1330       C  0.87267480  0.89507325  0.53944110    -0.36100
C1331       C  0.90068218  0.91203342  0.52244295     0.16200
C1332       C  0.91161452  0.90312824  0.48729097     0.22000
C1333       C  0.89549517  0.87561737  0.46785232    -0.34200
C1334       C  0.86773950  0.85835931  0.48562783     0.16100
O1335       O  0.82970252  0.84826909  0.53017632    -0.26200
C1336       C  0.82426796  0.82591683  0.50363235     0.05900
C1337       C  0.84714880  0.83088055  0.47538365    -0.31100
O1338       O  0.93791793  0.92292415  0.47559117    -0.22900
C1339       C  0.94413763  0.94471841  0.50405000    -0.02900
C1340       C  0.92186490  0.93885063  0.53452397    -0.17400
H1341       H  0.86420634  0.90251961  0.56653534     0.20600
H1342       H  0.90403938  0.86815161  0.44089542     0.19000
H1343       H  0.84826484  0.81641467  0.45063580     0.18900
H1344       H  0.92121487  0.95261541  0.56109692     0.14800
C1345       C  0.63882174  0.50554236  0.47924004     0.30200
C1346       C  0.62314070  0.51761951  0.46066159    -0.36100
C1347       C  0.59544234  0.50739294  0.47843779     0.16200
C1348       C  0.58420845  0.98727336  0.51297173     0.22000
C1349       C  0.59961066  0.97467222  0.53081663    -0.34200
C1350       C  0.62706544  0.98437604  0.51224496     0.16100
O1351       O  0.66533032  0.51233649  0.46831761    -0.26200
C1352       C  0.67035028  0.49483737  0.49388445     0.05900
C1353       C  0.64729006  0.97681604  0.52166702    -0.31100
O1354       O  0.55833933  0.98172247  0.52567633    -0.22900
C1355       C  0.55264880  0.99813212  0.49839057    -0.02900
C1356       C  0.57488555  0.51420272  0.46776571    -0.17400
H1357       H  0.63193678  0.53388324  0.43427393     0.20600
H1358       H  0.59083152  0.95849766  0.55732429     0.19000
H1359       H  0.64601820  0.96111411  0.54615622     0.18900
H1360       H  0.57587052  0.52901623  0.44179544     0.14800
C1361       C  0.85799932  0.99052994  0.48162336     0.30200
C1362       C  0.87420979  0.97945454  0.46167622    -0.36100
C1363       C  0.90184547  0.98970891  0.47972752     0.16200
C1364       C  0.91261525  0.50897825  0.51573222     0.22000
C1365       C  0.89661988  0.52054291  0.53512446    -0.34200
C1366       C  0.86916536  0.51079052  0.51631015     0.16100
O1367       O  0.83153963  0.98367838  0.47028358    -0.26200
C1368       C  0.82590077  0.50020291  0.49733915     0.05900
C1369       C  0.84851609  0.51765543  0.52653185    -0.31100
O1370       O  0.93861015  0.51472513  0.52821593    -0.22900
C1371       C  0.94466177  0.99917084  0.49943565    -0.02900
C1372       C  0.92271436  0.98359782  0.46801168    -0.17400
H1373       H  0.86585043  0.96391418  0.43399182     0.20600
H1374       H  0.90498375  0.53603289  0.56286868     0.19000
H1375       H  0.84931469  0.53267425  0.55211503     0.18900
H1376       H  0.92209864  0.96944497  0.44099067     0.14800
C1377       C  0.58811284  0.59522992  0.98442990     0.30200
C1378       C  0.60478851  0.62192298  0.96312949    -0.36100
C1379       C  0.63146242  0.64036929  0.98354050     0.16200
C1380       C  0.64142876  0.63282105  0.02164478     0.22000
C1381       C  0.62445684  0.60624995  0.04347328    -0.34200
C1382       C  0.59740995  0.58805177  0.02364053     0.16100
O1383       O  0.56252964  0.57480656  0.97098669    -0.26200
C1384       C  0.55481757  0.55444542  0.00250936     0.05900
C1385       C  0.57573006  0.56154739  0.03626391    -0.31100
O1386       O  0.66740496  0.65319486  0.03416830    -0.22900
C1387       C  0.67376242  0.67417839  0.00420288    -0.02900
C1388       C  0.65217646  0.66749211  0.97213386    -0.17400
H1389       H  0.59738548  0.62794816  0.93291224     0.20600
H1390       H  0.63174563  0.60026878  0.07387677     0.19000
H1391       H  0.57508309  0.54887273  0.06547311     0.18900
H1392       H  0.65203137  0.68058654  0.94411862     0.14800
C1393       C  0.91228314  0.90673624  0.01660264     0.30200
C1394       C  0.89608765  0.88035492  0.03896340    -0.36100
C1395       C  0.86866066  0.86202588  0.02089003     0.16200
C1396       C  0.85757530  0.86941868  0.98403815     0.22000
C1397       C  0.87407394  0.89565435  0.96104528    -0.34200
C1398       C  0.90187380  0.91370586  0.97847517     0.16100
O1399       O  0.93830784  0.92710277  0.02817504    -0.26200
C1400       C  0.94520573  0.94722244  0.99649056     0.05900
C1401       C  0.92333581  0.93994952  0.96437860    -0.31100
O1402       O  0.83109754  0.84917795  0.97368678    -0.22900
C1403       C  0.82552854  0.82844714  0.00377277    -0.02900
C1404       C  0.84813814  0.83514927  0.03374280    -0.17400
H1405       H  0.90436561  0.87449051  0.06829359     0.20600
H1406       H  0.86588560  0.90149661  0.93156910     0.19000
H1407       H  0.92314282  0.95244474  0.93549892     0.18900
H1408       H  0.84912002  0.82218285  0.06125751     0.14800
C1409       C  0.63132972  0.98947181  0.01085517     0.30200
C1410       C  0.60343542  0.97663748  0.02907127    -0.36100
C1411       C  0.58659500  0.98852392  0.01506133     0.16200
C1412       C  0.59617601  0.51089369  0.98434565     0.22000
C1413       C  0.62428668  0.52420468  0.96703992    -0.34200
C1414       C  0.64137816  0.51278811  0.98185825     0.16100
O1415       O  0.65072328  0.98175743  0.01897224    -0.26200
C1416       C  0.67363219  0.00077650  0.99558560     0.05900
C1417       C  0.66915983  0.52069119  0.97210047    -0.31100
O1418       O  0.57638500  0.51774867  0.97445750    -0.22900
C1419       C  0.55385645  0.99983599  0.99967576    -0.02900
C1420       C  0.55930441  0.98158009  0.02643169    -0.17400
H1421       H  0.59543585  0.95868080  0.05247763     0.20600
H1422       H  0.63224929  0.54216642  0.94365196     0.19000
H1423       H  0.68409642  0.53811782  0.95042741     0.18900
H1424       H  0.54514084  0.96534664  0.05045504     0.14800
C1425       C  0.86818147  0.51069645  0.98054592     0.30200
C1426       C  0.89626086  0.52354368  0.96315231    -0.36100
C1427       C  0.91332392  0.51243862  0.97941761     0.16200
C1428       C  0.90373766  0.99072767  0.01139926     0.22000
C1429       C  0.87543035  0.97735366  0.02789818    -0.34200
C1430       C  0.85813359  0.98800210  0.01085770     0.16100
O1431       O  0.84867722  0.51798395  0.97071079    -0.26200
C1432       C  0.82572913  0.99932189  0.99432073     0.05900
C1433       C  0.83021921  0.98002054  0.01962606    -0.31100
O1434       O  0.92367660  0.98440116  0.02295962    -0.22900
C1435       C  0.94626889  0.00193894  0.99746947    -0.02900
C1436       C  0.94079252  0.51953136  0.96913114    -0.17400
H1437       H  0.90424887  0.54097744  0.93872781     0.21800
H1438       H  0.86747850  0.95991756  0.05229141     0.19000
H1439       H  0.81529101  0.96310809  0.04207593     0.18900
H1440       H  0.95502086  0.53529772  0.94457488     0.14800
C1441       C  0.51060884  0.59578512  0.51571346     0.30200
C1442       C  0.52368725  0.62366105  0.53422291    -0.36100
C1443       C  0.51365056  0.64153914  0.51745890     0.16200
C1444       C  0.99178248  0.63239171  0.48550851     0.22000
C1445       C  0.97924459  0.60476912  0.46618433    -0.34200
C1446       C  0.98977679  0.58716098  0.48217240     0.16100
O1447       O  0.51631975  0.57535990  0.52684511    -0.26200
C1448       C  0.99924448  0.55341212  0.49958674     0.05900
C1449       C  0.98269442  0.55988588  0.47037859    -0.31100
O1450       O  0.98507574  0.65233051  0.47588426    -0.22900
C1451       C  0.00330758  0.67469853  0.50127277    -0.02900
C1452       C  0.52171846  0.66934232  0.52760636    -0.17400
H1453       H  0.54049292  0.63089033  0.55987950     0.20600
H1454       H  0.96246391  0.59751650  0.44049245     0.19000
H1455       H  0.96748844  0.54640824  0.44438746     0.18900
H1456       H  0.53822615  0.68369298  0.55132131     0.14800
C1457       C  0.99292633  0.85885710  0.51826740     0.30200
C1458       C  0.98009281  0.87376037  0.53720826    -0.36100
C1459       C  0.98979684  0.90148709  0.52017115     0.16200
C1460       C  0.51012318  0.91344870  0.48601260     0.22000
C1461       C  0.52351468  0.89884841  0.46785797    -0.34200
C1462       C  0.51432778  0.87136157  0.48569486     0.16100
O1463       O  0.98670771  0.83246601  0.52850230    -0.26200
C1464       C  0.00479723  0.82827039  0.50291991     0.05900
C1465       C  0.52268252  0.85177243  0.47586876    -0.31100
O1466       O  0.51534234  0.93933023  0.47438081    -0.22900
C1467       C  0.99853660  0.94432475  0.50202716    -0.02900
C1468       C  0.98249556  0.92156358  0.53175649    -0.17400
H1469       H  0.96370325  0.86439937  0.56339344     0.20600
H1470       H  0.53995270  0.90827317  0.44175481     0.19000
H1471       H  0.53878944  0.85372347  0.45155364     0.18900
H1472       H  0.96771171  0.92006185  0.55826440     0.14800
C1473       C  0.98836045  0.74520053  0.79350142     0.30200
C1474       C  0.97150829  0.73787918  0.75362363    -0.36100
C1475       C  0.98658510  0.74416191  0.71211473     0.16200
C1476       C  0.51619695  0.75691112  0.70996995     0.22000
C1477       C  0.53303125  0.76428776  0.74979415    -0.34200
C1478       C  0.51796327  0.75791463  0.79124432     0.16100
O1479       O  0.97881602  0.74104409  0.83600380    -0.26200
C1480       C  0.00264942  0.75125057  0.86118495     0.05900
C1481       C  0.52762107  0.76204531  0.83516005    -0.31100
O1482       O  0.52581707  0.76085498  0.66758651    -0.22900
C1483       C  0.00205878  0.75040770  0.64222740    -0.02900
C1484       C  0.97700010  0.73971738  0.66805821    -0.17400
H1485       H  0.94828511  0.72787130  0.75486805     0.20600
H1486       H  0.55625098  0.77421806  0.74854807     0.19000
H1487       H  0.54966082  0.77149175  0.84694530     0.18900
H1488       H  0.95499341  0.73018638  0.65607495     0.14800
C1489       C  0.99081188  0.74765449  0.29391179     0.30200
C1490       C  0.97351742  0.74043739  0.25459858    -0.36100
C1491       C  0.98813000  0.74725389  0.21268643     0.16200
C1492       C  0.51772983  0.76032120  0.20959160     0.22000
C1493       C  0.53503736  0.76757045  0.24894292    -0.34200
C1494       C  0.52041457  0.76071022  0.29089655     0.16100
O1495       O  0.98164850  0.74308535  0.33656514    -0.26200
C1496       C  0.00567639  0.75333364  0.36123049     0.05900
C1497       C  0.53047660  0.76458782  0.33466690    -0.31100
O1498       O  0.52680266  0.76445210  0.16684661    -0.22900
C1499       C  0.00268589  0.75384859  0.14230735    -0.02900
C1500       C  0.97797064  0.74288874  0.16900774    -0.17400
H1501       H  0.95028893  0.73011710  0.25655570     0.20600
H1502       H  0.55825568  0.77772123  0.24697933     0.19000
H1503       H  0.55262236  0.77417030  0.34598610     0.18900
H1504       H  0.95577667  0.73297123  0.15781473     0.14800
C1505       C  0.51023251  0.59719320  0.98741534     0.30200
C1506       C  0.52096646  0.62414572  0.96673793    -0.36100
C1507       C  0.51164751  0.64212186  0.98552108     0.16200
C1508       C  0.99247999  0.63392343  0.02150544     0.22000
C1509       C  0.98218640  0.60708339  0.04287328    -0.34200
C1510       C  0.99213148  0.58934109  0.02471700     0.16100
O1511       O  0.51562459  0.57686482  0.97442007    -0.26200
C1512       C  0.00145706  0.55579652  0.00430590     0.05900
C1513       C  0.98656991  0.56248203  0.03676265    -0.31100
O1514       O  0.98600346  0.65393707  0.03245526    -0.22900
C1515       C  0.00174196  0.67532237  0.00367281    -0.02900
C1516       C  0.51819968  0.66924617  0.97393187    -0.17400
H1517       H  0.53554629  0.63062093  0.93792028     0.20600
H1518       H  0.96748010  0.60050427  0.07152500     0.19000
H1519       H  0.97293674  0.54910447  0.06419974     0.18900
H1520       H  0.53253762  0.68273541  0.94720007     0.14800
C1521       C  0.99097231  0.90519284  0.01181941     0.30200
C1522       C  0.98167216  0.87898239  0.03422998    -0.36100
C1523       C  0.99142464  0.86125129  0.01594326     0.16200
C1524       C  0.50958002  0.86896027  0.97864869     0.22000
C1525       C  0.51835010  0.89499146  0.95549439    -0.34200
C1526       C  0.50805734  0.91252027  0.97331502     0.16100
O1527       O  0.98545158  0.92546327  0.02459047    -0.26200
C1528       C  0.99849682  0.94593647  0.99339497     0.05900
C1529       C  0.51274841  0.93892779  0.96024573    -0.31100
O1530       O  0.51669584  0.84931632  0.96837889    -0.22900
C1531       C  0.00245717  0.82869607  0.99907588    -0.02900
C1532       C  0.98627545  0.83485586  0.02926720    -0.17400
H1533       H  0.96798602  0.87296004  0.06413355     0.20600
H1534       H  0.53233167  0.90121203  0.92593399     0.19000
H1535       H  0.52570280  0.95197455  0.93199756     0.18900
H1536       H  0.97287082  0.82181817  0.05718849     0.14800
loop_ 
_geom_bond_atom_site_label_1 
_geom_bond_atom_site_label_2 
_geom_bond_distance 
_geom_bond_site_symmetry_2 
_ccdc_geom_bond_type 
O1           Cu9   2.016   1_556  S
O1           C11   1.277       .  A
O2           Cu9   2.012       .  S
O2           C12   1.278       .  A
O3           Cu9   1.996   1_556  S
O3           C13   1.276       .  A
O4           Cu9   2.016       .  S
O4           C14   1.278       .  A
O5          Cu10   2.002       .  S
O5          C782   1.277       .  A
O6          Cu10   2.021   1_556  S
O6          C781   1.279       .  A
O7          Cu10   2.013       .  S
O7          C780   1.277       .  A
O8          Cu10   2.005       .  S
O8          C779   1.277   1_554  A
Cu9        Cu778   2.377   1_455  S
Cu10       Cu777   2.377       .  S
C11         O776   1.277   1_456  A
C11        C1147   1.464       .  S
C12         O775   1.277   1_455  A
C12        C1131   1.466       .  S
C13         O774   1.279   1_455  A
C13        C1096   1.468       .  S
C14         O773   1.277   1_455  A
C14        C1115   1.468       .  S
O15         Cu23   2.010       .  S
O15         C793   1.277       .  A
O16         Cu23   2.007       .  S
O16         C794   1.277       .  A
O17         Cu23   2.012       .  S
O17         C795   1.278       .  A
O18         Cu23   2.011       .  S
O18         C796   1.278       .  A
O19         Cu24   2.005       .  S
O19          C28   1.277       .  A
O20         Cu24   2.006       .  S
O20          C27   1.277       .  A
O21         Cu24   2.010       .  S
O21          C26   1.277       .  A
O22         Cu24   2.007       .  S
O22          C25   1.277       .  A
Cu23       Cu792   2.375   1_455  S
Cu24       Cu791   2.375       .  S
C25         O783   1.277       .  A
C25         C312   1.463       .  S
C26         O784   1.277       .  A
C26         C299   1.464       .  S
C27         O785   1.278       .  A
C27         C344   1.468       .  S
C28         O786   1.278       .  A
C28         C331   1.468       .  S
C29         C232   1.490       .  S
C29         C414   1.420   1_554  A
C29         C802   1.420       .  A
C30         C267   1.492       .  S
C30         C413   1.420   1_556  A
C30         C799   1.421   1_455  A
C31         C376   1.491       .  S
C31          C32   1.419       .  A
C31         C798   1.421       .  A
C32         C248   1.491       .  S
C32          C33   1.419       .  A
C33         C283   1.490       .  S
C33         C418   1.421   1_556  A
C34         C360   1.492       .  S
C34         C797   1.420       .  A
C34         C417   1.421   1_554  A
C35         C187   1.492       .  S
C35          C36   1.420       .  A
C35          C40   1.421       .  A
C36         C315   1.493       .  S
C36         C805   1.420       .  A
C37         C203   1.493       .  S
C37         C804   1.420   1_455  A
C37         C422   1.422       .  A
C38         C171   1.490       .  S
C38         C421   1.422   1_545  A
C38         C807   1.418   1_455  A
C39         C296   1.495       .  S
C39         C806   1.418       .  A
C39         C424   1.419   1_545  A
C40         C219   1.488       .  S
C40         C423   1.419       .  A
O41         Cu49   2.008       .  S
O41         C435   1.277   1_545  A
O42         Cu49   2.006       .  S
O42         C436   1.277       .  A
O43         Cu49   2.016   1_554  S
O43         C437   1.279       .  A
O44         Cu49   1.997       .  S
O44         C438   1.276   1_545  A
O45         Cu50   2.020       .  S
O45          C54   1.279       .  A
O46         Cu50   2.002   1_554  S
O46          C53   1.276       .  A
O47         Cu50   2.007       .  S
O47          C52   1.276       .  A
O48         Cu50   2.003       .  S
O48          C51   1.277       .  A
Cu49       Cu434   2.378   1_545  S
Cu50       Cu433   2.378       .  S
C51         O425   1.277       .  A
C51         C280   1.462       .  S
C52         O426   1.277       .  A
C52         C264   1.463       .  S
C53         O427   1.279       .  A
C53         C155   1.468       .  S
C54         O428   1.276       .  A
C54         C136   1.468       .  S
O55         Cu63   2.008       .  S
O55          C65   1.277   1_545  A
O56         Cu63   2.008       .  S
O56          C66   1.277   1_545  A
O57         Cu63   2.011       .  S
O57          C67   1.278   1_545  A
O58         Cu63   2.014       .  S
O58          C68   1.278   1_545  A
O59         Cu64   2.006       .  S
O59         C452   1.277       .  A
O60         Cu64   2.004       .  S
O60         C451   1.277       .  A
O61         Cu64   2.010       .  S
O61         C450   1.277       .  A
O62         Cu64   2.009       .  S
O62         C449   1.277       .  A
Cu63       Cu448   2.375   1_545  S
Cu64       Cu447   2.375       .  S
C65         O446   1.277       .  A
C65         C216   1.463   1_565  S
C66         O445   1.277       .  A
C66         C200   1.464       .  S
C67         O444   1.277       .  A
C67         C139   1.467       .  S
C68         O443   1.277       .  A
C68         C152   1.469       .  S
O69         Cu77   2.011       .  S
O69          C79   1.278       .  A
O70         Cu77   2.012       .  S
O70          C80   1.277       .  A
O71         Cu77   1.998   1_556  S
O71          C81   1.276       .  A
O72         Cu77   2.019       .  S
O72          C82   1.279       .  A
O73         Cu78   1.999       .  S
O73          C82   1.276       .  A
O74         Cu78   2.019   1_556  S
O74          C81   1.279       .  A
O75         Cu78   2.010       .  S
O75          C80   1.278       .  A
O76         Cu78   2.013       .  S
O76          C79   1.277       .  A
Cu77        Cu78   2.377       .  S
C79         C235   1.465       .  S
C80         C251   1.465       .  S
C81         C104   1.468       .  S
C82         C120   1.468       .  S
O83         Cu91   2.014       .  S
O83          C93   1.277       .  A
O84         Cu91   2.011       .  S
O84          C94   1.277       .  A
O85         Cu91   2.010       .  S
O85          C95   1.278       .  A
O86         Cu91   2.008       .  S
O86          C96   1.277       .  A
O87         Cu92   2.008       .  S
O87          C96   1.278       .  A
O88         Cu92   2.011       .  S
O88          C95   1.277       .  A
O89         Cu92   2.009       .  S
O89          C94   1.277       .  A
O90         Cu92   2.008       .  S
O90          C93   1.277       .  A
Cu91        Cu92   2.375       .  S
C93         C184   1.466       .  S
C94         C168   1.464       .  S
C95         C107   1.469       .  S
C96         C123   1.468       .  S
C97         C102   1.381       .  A
C97          C98   1.402       .  A
C97         O103   1.316       .  A
C98          C99   1.401       .  A
C98         H109   1.082       .  S
C99         C108   1.360       .  A
C99         C100   1.380       .  A
C100        C101   1.404       .  A
C100        O106   1.319       .  A
C101        C102   1.403       .  A
C101        H110   1.082       .  S
C102        C105   1.364       .  A
O103        C104   1.330       .  A
C104        C105   1.392       .  A
C105        H111   1.082       .  S
O106        C107   1.331       .  A
C107        C108   1.390       .  A
C108        H112   1.082       .  S
C113        C118   1.381       .  A
C113        C114   1.401       .  A
C113        O119   1.316       .  A
C114        C115   1.400       .  A
C114        H125   1.082       .  S
C115        C124   1.360       .  A
C115        C116   1.380       .  A
C116        C117   1.404       .  A
C116        O122   1.319       .  A
C117        C118   1.403       .  A
C117        H126   1.082       .  S
C118        C121   1.364       .  A
O119        C120   1.330       .  A
C120        C121   1.392       .  A
C121        H127   1.082       .  S
O122        C123   1.331       .  A
C123        C124   1.390       .  A
C124        H128   1.083       .  S
C129        C130   1.403       .  A
C129        C518   1.381       .  A
C129        O135   1.320       .  A
C130        C131   1.403       .  A
C130        H141   1.082       .  S
C131        C140   1.361       .  A
C131        C516   1.381       .  A
C132        C133   1.401       .  A
C132        C515   1.381   1_545  A
C132        O138   1.318       .  A
C133        C134   1.401       .  A
C133        H142   1.082       .  S
C134        C137   1.359       .  A
C134        C513   1.381   1_545  A
O135        C136   1.331       .  A
C136        C521   1.390       .  A
C137        C520   1.391   1_545  A
C137        H143   1.082       .  S
O138        C139   1.329   1_545  A
C139        C524   1.392       .  A
C140        C523   1.392       .  A
C140        H144   1.082       .  S
C145        C146   1.403       .  A
C145        C534   1.381   1_545  A
C145        O151   1.319       .  A
C146        C147   1.403       .  A
C146        H157   1.082       .  S
C147        C156   1.362       .  A
C147        C532   1.381   1_545  A
C148        C149   1.402       .  A
C148        C531   1.381       .  A
C148        O154   1.318       .  A
C149        C150   1.402       .  A
C149        H158   1.082       .  S
C150        C153   1.360       .  A
C150        C529   1.381       .  A
O151        C152   1.331   1_545  A
C152        C537   1.391       .  A
C153        C536   1.391       .  A
C153        H159   1.083       .  S
O154        C155   1.330       .  A
C155        C540   1.391       .  A
C156        C539   1.391       .  A
C156        H160   1.083       .  S
C161        C166   1.381       .  A
C161        C162   1.402       .  A
C161        O167   1.318       .  A
C162        C163   1.401       .  A
C162        H173   1.082       .  S
C163        C172   1.359       .  A
C163        C164   1.380       .  A
C164        C165   1.403       .  A
C164        O170   1.318       .  A
C165        C166   1.402       .  A
C165        H174   1.082       .  S
C166        C169   1.361       .  A
O167        C168   1.330       .  A
C168        C169   1.390       .  A
C169        H175   1.083       .  S
O170        C171   1.332       .  A
C171        C172   1.393       .  A
C172        H176   1.083       .  S
C177        C182   1.381       .  A
C177        C178   1.403       .  A
C177        O183   1.320       .  A
C178        C179   1.402       .  A
C178        H189   1.082       .  S
C179        C188   1.359       .  A
C179        C180   1.380       .  A
C180        C181   1.403       .  A
C180        O186   1.319       .  A
C181        C182   1.403       .  A
C181        H190   1.083       .  S
C182        C185   1.361       .  A
O183        C184   1.330       .  A
C184        C185   1.390       .  A
C185        H191   1.082       .  S
O186        C187   1.332       .  A
C187        C188   1.394       .  A
C188        H192   1.082       .  S
C193        C194   1.402       .  A
C193        C582   1.381   1_545  A
C193        O199   1.318       .  A
C194        C195   1.401       .  A
C194        H205   1.082       .  S
C195        C204   1.359       .  A
C195        C580   1.379   1_545  A
C196        C197   1.403       .  A
C196        C579   1.379       .  A
C196        O202   1.318       .  A
C197        C198   1.403       .  A
C197        H206   1.082       .  S
C198        C201   1.362       .  A
C198        C577   1.381       .  A
O199        C200   1.329   1_545  A
C200        C585   1.390       .  A
C201        C584   1.390       .  A
C201        H207   1.083       .  S
O202        C203   1.332       .  A
C203        C588   1.394       .  A
C204        C587   1.394   1_545  A
C204        H208   1.082       .  S
C209        C210   1.400       .  A
C209        C598   1.381       .  A
C209        O215   1.317       .  A
C210        C211   1.399       .  A
C210        H221   1.083       .  S
C211        C220   1.357       .  A
C211        C596   1.380       .  A
C212        C213   1.404       .  A
C212        C595   1.380   1_545  A
C212        O218   1.319       .  A
C213        C214   1.403       .  A
C213        H222   1.083       .  S
C214        C217   1.362       .  A
C214        C593   1.381   1_545  A
O215        C600   1.328       .  A
C216        C217   1.391       .  A
C216        O599   1.328   1_545  A
C217        H223   1.082       .  S
O218        C603   1.332   1_545  A
C219        C220   1.392       .  A
C219        O602   1.332       .  A
C220        H224   1.083       .  S
C225        C230   1.379   1_556  A
C225        C226   1.401       .  A
C225        O231   1.316       .  A
C226        C227   1.400       .  A
C226        H237   1.082       .  S
C227        C236   1.360       .  A
C227        C228   1.381   1_556  A
C228        C229   1.406       .  A
C228        O234   1.321       .  A
C229        C230   1.404       .  A
C229        H238   1.082       .  S
C230        C233   1.364       .  A
O231        C232   1.329   1_556  A
C232        C233   1.394       .  A
C233        H239   1.082       .  S
O234        C235   1.331       .  A
C235        C236   1.388   1_554  A
C236        H240   1.083       .  S
C241        C246   1.379   1_554  A
C241        C242   1.401       .  A
C241        O247   1.315       .  A
C242        C243   1.400       .  A
C242        H253   1.082       .  S
C243        C252   1.360       .  A
C243        C244   1.381   1_554  A
C244        C245   1.406       .  A
C244        O250   1.320       .  A
C245        C246   1.404       .  A
C245        H254   1.082       .  S
C246        C249   1.364       .  A
O247        C248   1.329   1_554  A
C248        C249   1.395       .  A
C249        H255   1.082       .  S
O250        C251   1.331   1_556  A
C251        C252   1.388       .  A
C252        H256   1.083       .  S
C257        C258   1.403       .  A
C257        C646   1.381   1_554  A
C257        O263   1.318       .  A
C258        C259   1.402       .  A
C258        H269   1.082       .  S
C259        C268   1.358       .  A
C259        C644   1.379   1_554  A
C260        C261   1.401       .  A
C260        C643   1.379   1_546  A
C260        O266   1.317       .  A
C261        C262   1.401       .  A
C261        H270   1.082       .  S
C262        C265   1.360       .  A
C262        C641   1.381   1_546  A
O263        C264   1.330   1_554  A
C264        C649   1.389       .  A
C265        C648   1.389       .  A
C265        H271   1.083       .  S
O266        C651   1.331   1_545  A
C267        C268   1.395   1_556  A
C267        O650   1.331       .  A
C268        H272   1.082       .  S
C273        C274   1.402       .  A
C273        C662   1.381   1_546  A
C273        O279   1.318       .  A
C274        C275   1.401       .  A
C274        H285   1.082       .  S
C275        C284   1.358       .  A
C275        C660   1.379   1_546  A
C276        C277   1.402       .  A
C276        C659   1.379   1_554  A
C276        O282   1.317       .  A
C277        C278   1.401       .  A
C277        H286   1.082       .  S
C278        C281   1.360       .  A
C278        C657   1.381   1_554  A
O279        C664   1.329   1_545  A
C280        C281   1.389   1_556  A
C280        O663   1.329       .  A
C281        H287   1.083       .  S
O282        C283   1.331   1_554  A
C283        C668   1.393       .  A
C284        C667   1.393       .  A
C284        H288   1.082       .  S
C289        C290   1.403       .  A
C289       C1062   1.379   1_455  A
C289        O295   1.318       .  A
C290        C291   1.402       .  A
C290        H301   1.083       .  S
C291        C300   1.361       .  A
C291       C1060   1.381   1_455  A
C292        C293   1.402       .  A
C292       C1059   1.381       .  A
C292        O298   1.318       .  A
C293        C294   1.401       .  A
C293        H302   1.083       .  S
C294        C297   1.358       .  A
C294       C1057   1.379       .  A
O295       C1064   1.332   1_455  A
C296        C297   1.394       .  A
C296       O1063   1.332       .  A
C297        H303   1.082       .  S
O298        C299   1.329       .  A
C299       C1068   1.390       .  A
C300       C1067   1.390       .  A
C300        H304   1.082       .  S
C305        C306   1.402       .  A
C305       C1078   1.381       .  A
C305        O311   1.317       .  A
C306        C307   1.401       .  A
C306        H317   1.082       .  S
C307        C316   1.359       .  A
C307       C1076   1.379       .  A
C308        C309   1.403       .  A
C308       C1075   1.379   1_455  A
C308        O314   1.317       .  A
C309        C310   1.403       .  A
C309        H318   1.082       .  S
C310        C313   1.362       .  A
C310       C1073   1.381   1_455  A
O311        C312   1.329       .  A
C312       C1081   1.390       .  A
C313       C1080   1.390       .  A
C313        H319   1.082       .  S
O314       C1083   1.333   1_455  A
C315        C316   1.394       .  A
C315       O1082   1.333       .  A
C316        H320   1.082       .  S
C321        C322   1.403       .  A
C321       C1094   1.381       .  A
C321        O327   1.320       .  A
C322        C323   1.403       .  A
C322        H333   1.082       .  S
C323        C332   1.361       .  A
C323       C1092   1.381       .  A
C324        C325   1.401       .  A
C324       C1091   1.381   1_455  A
C324        O330   1.318       .  A
C325        C326   1.401       .  A
C325        H334   1.082       .  S
C326        C329   1.359       .  A
C326       C1089   1.381   1_455  A
O327        C328   1.331       .  A
C328        C781   1.468       .  S
C328       C1097   1.391       .  A
C329       C1096   1.391       .  A
C329        H335   1.082       .  S
O330       C1099   1.330       .  A
C331        C332   1.391       .  A
C331       O1098   1.330       .  A
C332        H336   1.082       .  S
C337        C338   1.402       .  A
C337       C1110   1.381       .  A
C337        O343   1.318       .  A
C338        C339   1.401       .  A
C338        H349   1.082       .  S
C339        C348   1.360       .  A
C339       C1108   1.381       .  A
C340        C341   1.403       .  A
C340       C1107   1.381   1_455  A
C340        O346   1.319       .  A
C341        C342   1.403       .  A
C341        H350   1.082       .  S
C342        C345   1.362       .  A
C342       C1105   1.381   1_455  A
O343        C344   1.330       .  A
C344       C1113   1.391       .  A
C345       C1112   1.391       .  A
C345        H351   1.082       .  S
O346       C1115   1.331       .  A
C347        C782   1.468       .  S
C347        C348   1.391       .  A
C347       O1114   1.331       .  A
C348        H352   1.082       .  S
C353        C354   1.400       .  A
C353       C1126   1.379   1_456  A
C353        O359   1.315       .  A
C354        C355   1.399       .  A
C354        H365   1.082       .  S
C355        C364   1.359       .  A
C355       C1124   1.381   1_456  A
C356        C357   1.407       .  A
C356       C1123   1.381   1_554  A
C356        O362   1.321       .  A
C357        C358   1.405       .  A
C357        H366   1.082       .  S
C358        C361   1.365       .  A
C358       C1121   1.379   1_554  A
O359       C1128   1.329   1_556  A
C360        C361   1.396       .  A
C360       O1127   1.329   1_554  A
C361        H367   1.082       .  S
O362        C363   1.332       .  A
C363        C780   1.466       .  S
C363       C1132   1.388   1_554  A
C364       C1131   1.388   1_556  A
C364        H368   1.083       .  S
C369        C370   1.400       .  A
C369       C1142   1.379   1_554  A
C369        O375   1.314       .  A
C370        C371   1.399       .  A
C370        H381   1.082       .  S
C371        C380   1.358       .  A
C371       C1140   1.381   1_554  A
C372        C373   1.407       .  A
C372       C1139   1.381   1_456  A
C372        O378   1.321       .  A
C373        C374   1.405       .  A
C373        H382   1.082       .  S
C374        C377   1.365       .  A
C374       C1137   1.379   1_456  A
O375        C376   1.329   1_554  A
C376       C1145   1.396       .  A
C377       C1144   1.396   1_455  A
C377        H383   1.082       .  S
O378       C1147   1.332       .  A
C379        C779   1.464       .  S
C379        C380   1.387   1_556  A
C379       O1146   1.332       .  A
C380        H384   1.083       .  S
O385       Cu393   2.016   1_556  S
O385        C395   1.277       .  A
O386       Cu393   2.012       .  S
O386        C396   1.278       .  A
O387       Cu393   1.996   1_556  S
O387        C397   1.276       .  A
O388       Cu393   2.016       .  S
O388        C398   1.278       .  A
O389       Cu394   2.002       .  S
O389       C1166   1.277       .  A
O390       Cu394   2.021   1_556  S
O390       C1165   1.279       .  A
O391       Cu394   2.013       .  S
O391       C1164   1.277       .  A
O392       Cu394   2.005       .  S
O392       C1163   1.277   1_554  A
Cu393     Cu1162   2.377   1_455  S
Cu394     Cu1161   2.377       .  S
C395       O1160   1.277   1_456  A
C395       C1531   1.464       .  S
C396       O1159   1.277   1_455  A
C396       C1515   1.466       .  S
C397       O1158   1.279   1_455  A
C397       C1480   1.468       .  S
C398       O1157   1.277   1_455  A
C398       C1499   1.468       .  S
O399       Cu407   2.010       .  S
O399       C1177   1.277       .  A
O400       Cu407   2.007       .  S
O400       C1178   1.277       .  A
O401       Cu407   2.012       .  S
O401       C1179   1.278       .  A
O402       Cu407   2.011       .  S
O402       C1180   1.278       .  A
O403       Cu408   2.005       .  S
O403        C412   1.277       .  A
O404       Cu408   2.006       .  S
O404        C411   1.277       .  A
O405       Cu408   2.010       .  S
O405        C410   1.277       .  A
O406       Cu408   2.007       .  S
O406        C409   1.277       .  A
Cu407     Cu1176   2.375   1_455  S
Cu408     Cu1175   2.375       .  S
C409       O1167   1.277       .  A
C409        C696   1.463       .  S
C410       O1168   1.277       .  A
C410        C683   1.464       .  S
C411       O1169   1.278       .  A
C411        C728   1.468       .  S
C412       O1170   1.278       .  A
C412        C715   1.468       .  S
C413        C616   1.491       .  S
C413       C1186   1.420       .  A
C414        C651   1.492   1_545  S
C414       C1183   1.421   1_445  A
C415        C760   1.491       .  S
C415       C1182   1.421   1_565  A
C415        C416   1.419       .  A
C416        C632   1.491       .  S
C416        C417   1.419   1_565  A
C417        C667   1.490       .  S
C418        C744   1.492       .  S
C418       C1181   1.420       .  A
C419        C571   1.492       .  S
C419        C420   1.420       .  A
C419        C424   1.421       .  A
C420        C699   1.494       .  S
C420       C1189   1.420       .  A
C421        C587   1.493       .  S
C421       C1188   1.420   1_455  A
C422        C555   1.490       .  S
C422       C1191   1.418   1_455  A
C423        C680   1.495       .  S
C423       C1190   1.418       .  A
C424        C603   1.488       .  S
O425       Cu433   2.008       .  S
O426       Cu433   2.006       .  S
O427       Cu433   2.016   1_554  S
O428       Cu433   1.997       .  S
O429       Cu434   2.020       .  S
O429        C438   1.279       .  A
O430       Cu434   2.002   1_554  S
O430        C437   1.276   1_565  A
O431       Cu434   2.007       .  S
O431        C436   1.276   1_565  A
O432       Cu434   2.003       .  S
O432        C435   1.277       .  A
C435        C664   1.462       .  S
C436        C648   1.463       .  S
C437        C539   1.468       .  S
C438        C520   1.468       .  S
O439       Cu447   2.008       .  S
O439        C449   1.277       .  A
O440       Cu447   2.008       .  S
O440        C450   1.277       .  A
O441       Cu447   2.011       .  S
O441        C451   1.278       .  A
O442       Cu447   2.014       .  S
O442        C452   1.278       .  A
O443       Cu448   2.006       .  S
O444       Cu448   2.004       .  S
O445       Cu448   2.010       .  S
O446       Cu448   2.009       .  S
C449        C600   1.463       .  S
C450        C584   1.464       .  S
C451        C523   1.467       .  S
C452        C536   1.469       .  S
O453       Cu461   2.011       .  S
O453        C463   1.278       .  A
O454       Cu461   2.012       .  S
O454        C464   1.277       .  A
O455       Cu461   1.998   1_556  S
O455        C465   1.276       .  A
O456       Cu461   2.019       .  S
O456        C466   1.279       .  A
O457       Cu462   1.999       .  S
O457        C466   1.276       .  A
O458       Cu462   2.019   1_556  S
O458        C465   1.279       .  A
O459       Cu462   2.010       .  S
O459        C464   1.278       .  A
O460       Cu462   2.013       .  S
O460        C463   1.277       .  A
Cu461      Cu462   2.377       .  S
C463        C619   1.465       .  S
C464        C635   1.465       .  S
C465        C488   1.468       .  S
C466        C504   1.468       .  S
O467       Cu475   2.014       .  S
O467        C477   1.277       .  A
O468       Cu475   2.011       .  S
O468        C478   1.277       .  A
O469       Cu475   2.010       .  S
O469        C479   1.278       .  A
O470       Cu475   2.008       .  S
O470        C480   1.277       .  A
O471       Cu476   2.008       .  S
O471        C480   1.278       .  A
O472       Cu476   2.011       .  S
O472        C479   1.277       .  A
O473       Cu476   2.009       .  S
O473        C478   1.277       .  A
O474       Cu476   2.008       .  S
O474        C477   1.277       .  A
Cu475      Cu476   2.375       .  S
C477        C568   1.466       .  S
C478        C552   1.464       .  S
C479        C491   1.469       .  S
C480        C507   1.468       .  S
C481        C486   1.381       .  A
C481        C482   1.402       .  A
C481        O487   1.316       .  A
C482        C483   1.401       .  A
C482        H493   1.082       .  S
C483        C492   1.360       .  A
C483        C484   1.380       .  A
C484        C485   1.405       .  A
C484        O490   1.319       .  A
C485        C486   1.403       .  A
C485        H494   1.082       .  S
C486        C489   1.364       .  A
O487        C488   1.330       .  A
C488        C489   1.392       .  A
C489        H495   1.083       .  S
O490        C491   1.331       .  A
C491        C492   1.390       .  A
C492        H496   1.083       .  S
C497        C502   1.381       .  A
C497        C498   1.401       .  A
C497        O503   1.316       .  A
C498        C499   1.400       .  A
C498        H509   1.082       .  S
C499        C508   1.360       .  A
C499        C500   1.380       .  A
C500        C501   1.404       .  A
C500        O506   1.319       .  A
C501        C502   1.403       .  A
C501        H510   1.082       .  S
C502        C505   1.364       .  A
O503        C504   1.330       .  A
C504        C505   1.392       .  A
C505        H511   1.083       .  S
O506        C507   1.331       .  A
C507        C508   1.390       .  A
C508        H512   1.083       .  S
C513        C514   1.403       .  A
C513        O519   1.320       .  A
C514        C515   1.403       .  A
C514        H525   1.082       .  S
C515        C524   1.361       .  A
C516        C517   1.401       .  A
C516        O522   1.318       .  A
C517        C518   1.401       .  A
C517        H526   1.082       .  S
C518        C521   1.359       .  A
O519        C520   1.331       .  A
C521        H527   1.082       .  S
O522        C523   1.329       .  A
C524        H528   1.082       .  S
C529        C530   1.403       .  A
C529        O535   1.319       .  A
C530        C531   1.403       .  A
C530        H541   1.082       .  S
C531        C540   1.362       .  A
C532        C533   1.402       .  A
C532        O538   1.318       .  A
C533        C534   1.402       .  A
C533        H542   1.082       .  S
C534        C537   1.360       .  A
O535        C536   1.331       .  A
C537        H543   1.083       .  S
O538        C539   1.330   1_565  A
C540        H544   1.083       .  S
C545        C550   1.381       .  A
C545        C546   1.402       .  A
C545        O551   1.318       .  A
C546        C547   1.401       .  A
C546        H557   1.082       .  S
C547        C556   1.359       .  A
C547        C548   1.380       .  A
C548        C549   1.403       .  A
C548        O554   1.318       .  A
C549        C550   1.402       .  A
C549        H558   1.082       .  S
C550        C553   1.361       .  A
O551        C552   1.330       .  A
C552        C553   1.390       .  A
C553        H559   1.083       .  S
O554        C555   1.332       .  A
C555        C556   1.393       .  A
C556        H560   1.082       .  S
C561        C566   1.381       .  A
C561        C562   1.403       .  A
C561        O567   1.320       .  A
C562        C563   1.402       .  A
C562        H573   1.082       .  S
C563        C572   1.359       .  A
C563        C564   1.380       .  A
C564        C565   1.403       .  A
C564        O570   1.319       .  A
C565        C566   1.403       .  A
C565        H574   1.083       .  S
C566        C569   1.361       .  A
O567        C568   1.330       .  A
C568        C569   1.390       .  A
C569        H575   1.082       .  S
O570        C571   1.332       .  A
C571        C572   1.394       .  A
C572        H576   1.082       .  S
C577        C578   1.402       .  A
C577        O583   1.318       .  A
C578        C579   1.401       .  A
C578        H589   1.082       .  S
C579        C588   1.359       .  A
C580        C581   1.403       .  A
C580        O586   1.318       .  A
C581        C582   1.403       .  A
C581        H590   1.082       .  S
C582        C585   1.362       .  A
O583        C584   1.329       .  A
C585        H591   1.083       .  S
O586        C587   1.332       .  A
C588        H592   1.082       .  S
C593        C594   1.400       .  A
C593        O599   1.317       .  A
C594        C595   1.399       .  A
C594        H605   1.083       .  S
C595        C604   1.357       .  A
C596        C597   1.404       .  A
C596        O602   1.319       .  A
C597        C598   1.403       .  A
C597        H606   1.083       .  S
C598        C601   1.362       .  A
C600        C601   1.391       .  A
C601        H607   1.082       .  S
C603        C604   1.392       .  A
C604        H608   1.083       .  S
C609        C614   1.379   1_556  A
C609        C610   1.401       .  A
C609        O615   1.316       .  A
C610        C611   1.400       .  A
C610        H621   1.082       .  S
C611        C620   1.360       .  A
C611        C612   1.381   1_556  A
C612        C613   1.406       .  A
C612        O618   1.321       .  A
C613        C614   1.404       .  A
C613        H622   1.082       .  S
C614        C617   1.364       .  A
O615        C616   1.329   1_556  A
C616        C617   1.394       .  A
C617        H623   1.082       .  S
O618        C619   1.331       .  A
C619        C620   1.388   1_554  A
C620        H624   1.083       .  S
C625        C630   1.379   1_554  A
C625        C626   1.401       .  A
C625        O631   1.315       .  A
C626        C627   1.400       .  A
C626        H637   1.082       .  S
C627        C636   1.360       .  A
C627        C628   1.381   1_554  A
C628        C629   1.406       .  A
C628        O634   1.320       .  A
C629        C630   1.404       .  A
C629        H638   1.082       .  S
C630        C633   1.364       .  A
O631        C632   1.329   1_554  A
C632        C633   1.395       .  A
C633        H639   1.082       .  S
O634        C635   1.331   1_556  A
C635        C636   1.388       .  A
C636        H640   1.083       .  S
C641        C642   1.403       .  A
C641        O647   1.318       .  A
C642        C643   1.402       .  A
C642        H653   1.082       .  S
C643        C652   1.358       .  A
C644        C645   1.401       .  A
C644        O650   1.317       .  A
C645        C646   1.401       .  A
C645        H654   1.082       .  S
C646        C649   1.360       .  A
O647        C648   1.330   1_564  A
C649        H655   1.083       .  S
C651        C652   1.395   1_556  A
C652        H656   1.082       .  S
C657        C658   1.402       .  A
C657        O663   1.318       .  A
C658        C659   1.401       .  A
C658        H669   1.082       .  S
C659        C668   1.358       .  A
C660        C661   1.402       .  A
C660        O666   1.317       .  A
C661        C662   1.401       .  A
C661        H670   1.082       .  S
C662        C665   1.360       .  A
C664        C665   1.389   1_556  A
C665        H671   1.083       .  S
O666        C667   1.331   1_564  A
C668        H672   1.082       .  S
C673       C1446   1.379   1_455  A
C673        C674   1.403       .  A
C673        O679   1.318       .  A
C674        C675   1.402       .  A
C674        H685   1.083       .  S
C675        C684   1.361       .  A
C675       C1444   1.381   1_455  A
C676       C1443   1.381       .  A
C676        C677   1.402       .  A
C676        O682   1.318       .  A
C677        C678   1.401       .  A
C677        H686   1.082       .  S
C678       C1441   1.379       .  A
C678        C681   1.358       .  A
O679       C1448   1.332   1_455  A
C680        C681   1.394       .  A
C680       O1447   1.332       .  A
C681        H687   1.082       .  S
O682        C683   1.329       .  A
C683       C1452   1.390       .  A
C684       C1451   1.390       .  A
C684        H688   1.082       .  S
C689       C1462   1.381       .  A
C689        C690   1.402       .  A
C689        O695   1.317       .  A
C690        C691   1.401       .  A
C690        H701   1.082       .  S
C691        C700   1.359       .  A
C691       C1460   1.379       .  A
C692       C1459   1.379   1_455  A
C692        C693   1.403       .  A
C692        O698   1.317       .  A
C693        C694   1.403       .  A
C693        H702   1.082       .  S
C694       C1457   1.381   1_455  A
C694        C697   1.362       .  A
O695        C696   1.329       .  A
C696       C1465   1.390       .  A
C697       C1464   1.390       .  A
C697        H703   1.082       .  S
O698       C1467   1.333   1_455  A
C699        C700   1.394       .  A
C699       O1466   1.333       .  A
C700        H704   1.082       .  S
C705       C1478   1.381       .  A
C705        C706   1.403       .  A
C705        O711   1.320       .  A
C706        C707   1.403       .  A
C706        H717   1.082       .  S
C707        C716   1.361       .  A
C707       C1476   1.381       .  A
C708       C1475   1.381   1_455  A
C708        C709   1.401       .  A
C708        O714   1.318       .  A
C709        C710   1.401       .  A
C709        H718   1.082       .  S
C710       C1473   1.381   1_455  A
C710        C713   1.359       .  A
O711        C712   1.331       .  A
C712       C1165   1.468       .  S
C712       C1481   1.391       .  A
C713       C1480   1.391       .  A
C713        H719   1.082       .  S
O714       C1483   1.330       .  A
C715        C716   1.391       .  A
C715       O1482   1.330       .  A
C716        H720   1.082       .  S
C721       C1494   1.381       .  A
C721        C722   1.402       .  A
C721        O727   1.318       .  A
C722        C723   1.401       .  A
C722        H733   1.082       .  S
C723        C732   1.360       .  A
C723       C1492   1.381       .  A
C724       C1491   1.381   1_455  A
C724        C725   1.403       .  A
C724        O730   1.319       .  A
C725        C726   1.403       .  A
C725        H734   1.082       .  S
C726       C1489   1.381   1_455  A
C726        C729   1.362       .  A
O727        C728   1.330       .  A
C728       C1497   1.391       .  A
C729       C1496   1.391       .  A
C729        H735   1.082       .  S
O730       C1499   1.331       .  A
C731       C1166   1.468       .  S
C731        C732   1.391       .  A
C731       O1498   1.331       .  A
C732        H736   1.082       .  S
C737       C1510   1.379   1_456  A
C737        C738   1.400       .  A
C737        O743   1.315       .  A
C738        C739   1.399       .  A
C738        H749   1.082       .  S
C739        C748   1.359       .  A
C739       C1508   1.381   1_456  A
C740       C1507   1.381   1_554  A
C740        C741   1.407       .  A
C740        O746   1.321       .  A
C741        C742   1.405       .  A
C741        H750   1.082       .  S
C742       C1505   1.379   1_554  A
C742        C745   1.365       .  A
O743       C1512   1.329   1_556  A
C744        C745   1.396       .  A
C744       O1511   1.329   1_554  A
C745        H751   1.082       .  S
O746        C747   1.332       .  A
C747       C1164   1.466       .  S
C747       C1516   1.388   1_554  A
C748       C1515   1.388   1_556  A
C748        H752   1.083       .  S
C753       C1526   1.379   1_554  A
C753        C754   1.400       .  A
C753        O759   1.314       .  A
C754        C755   1.399       .  A
C754        H765   1.082       .  S
C755        C764   1.358       .  A
C755       C1524   1.381   1_554  A
C756       C1523   1.381   1_456  A
C756        C757   1.407       .  A
C756        O762   1.321       .  A
C757        C758   1.405       .  A
C757        H766   1.082       .  S
C758       C1521   1.379   1_456  A
C758        C761   1.365       .  A
O759        C760   1.328   1_554  A
C760       C1529   1.396       .  A
C761       C1528   1.396   1_455  A
C761        H767   1.082       .  S
O762       C1531   1.332       .  A
C763       C1163   1.464       .  S
C763        C764   1.387   1_556  A
C763       O1530   1.332       .  A
C764        H768   1.083       .  S
O769       Cu777   2.016   1_556  S
O769        C779   1.277       .  A
O770       Cu777   2.012       .  S
O770        C780   1.278       .  A
O771       Cu777   1.996   1_556  S
O771        C781   1.276       .  A
O772       Cu777   2.016       .  S
O772        C782   1.278       .  A
O773       Cu778   2.002       .  S
O774       Cu778   2.021   1_556  S
O775       Cu778   2.013       .  S
O776       Cu778   2.005       .  S
O783       Cu791   2.010       .  S
O784       Cu791   2.007       .  S
O785       Cu791   2.012       .  S
O786       Cu791   2.011       .  S
O787       Cu792   2.005       .  S
O787        C796   1.277   1_655  A
O788       Cu792   2.006       .  S
O788        C795   1.277   1_655  A
O789       Cu792   2.010       .  S
O789        C794   1.277   1_655  A
O790       Cu792   2.007       .  S
O790        C793   1.277   1_655  A
C793       C1080   1.463       .  S
C794       C1067   1.464       .  S
C795       C1112   1.468       .  S
C796       C1099   1.468       .  S
C797       C1000   1.490       .  S
C797       C1182   1.420   1_554  A
C798       C1035   1.492       .  S
C798       C1181   1.420   1_556  A
C799       C1144   1.491       .  S
C799        C800   1.419       .  A
C800       C1016   1.491       .  S
C800        C801   1.419       .  A
C801       C1051   1.490       .  S
C801       C1186   1.421   1_656  A
C802       C1128   1.492       .  S
C802       C1185   1.421   1_454  A
C803        C955   1.492       .  S
C803        C804   1.420       .  A
C803        C808   1.421       .  A
C804       C1083   1.493       .  S
C805        C971   1.493       .  S
C805       C1190   1.422       .  A
C806        C939   1.490       .  S
C806       C1189   1.422   1_545  A
C807       C1064   1.495       .  S
C807       C1192   1.419   1_545  A
C808        C987   1.488       .  S
C808       C1191   1.419       .  A
O809       Cu817   2.008       .  S
O809       C1203   1.277   1_545  A
O810       Cu817   2.006       .  S
O810       C1204   1.277       .  A
O811       Cu817   2.016   1_554  S
O811       C1205   1.279       .  A
O812       Cu817   1.997       .  S
O812       C1206   1.276   1_545  A
O813       Cu818   2.020       .  S
O813        C822   1.279       .  A
O814       Cu818   2.002   1_554  S
O814        C821   1.276       .  A
O815       Cu818   2.007       .  S
O815        C820   1.276       .  A
O816       Cu818   2.003       .  S
O816        C819   1.277       .  A
Cu817     Cu1202   2.378   1_545  S
Cu818     Cu1201   2.378       .  S
C819       O1193   1.277       .  A
C819       C1048   1.462       .  S
C820       O1194   1.277       .  A
C820       C1032   1.463       .  S
C821       O1195   1.279       .  A
C821        C923   1.468       .  S
C822       O1196   1.276       .  A
C822        C904   1.468       .  S
O823       Cu831   2.008       .  S
O823        C833   1.277   1_545  A
O824       Cu831   2.008       .  S
O824        C834   1.277   1_545  A
O825       Cu831   2.011       .  S
O825        C835   1.278   1_545  A
O826       Cu831   2.014       .  S
O826        C836   1.278   1_545  A
O827       Cu832   2.006       .  S
O827       C1220   1.277       .  A
O828       Cu832   2.004       .  S
O828       C1219   1.277       .  A
O829       Cu832   2.010       .  S
O829       C1218   1.277       .  A
O830       Cu832   2.009       .  S
O830       C1217   1.277       .  A
Cu831     Cu1216   2.375   1_545  S
Cu832     Cu1215   2.375       .  S
C833       O1214   1.277       .  A
C833        C984   1.463   1_565  S
C834       O1213   1.277       .  A
C834        C968   1.464       .  S
C835       O1212   1.277       .  A
C835        C907   1.467       .  S
C836       O1211   1.277       .  A
C836        C920   1.469       .  S
O837       Cu845   2.011       .  S
O837        C847   1.278       .  A
O838       Cu845   2.012       .  S
O838        C848   1.277       .  A
O839       Cu845   1.998   1_556  S
O839        C849   1.276       .  A
O840       Cu845   2.019       .  S
O840        C850   1.279       .  A
O841       Cu846   1.999       .  S
O841        C850   1.276       .  A
O842       Cu846   2.019   1_556  S
O842        C849   1.279       .  A
O843       Cu846   2.010       .  S
O843        C848   1.278       .  A
O844       Cu846   2.013       .  S
O844        C847   1.277       .  A
Cu845      Cu846   2.377       .  S
C847       C1003   1.465       .  S
C848       C1019   1.465       .  S
C849        C872   1.468       .  S
C850        C888   1.468       .  S
O851       Cu859   2.014       .  S
O851        C861   1.277       .  A
O852       Cu859   2.011       .  S
O852        C862   1.277       .  A
O853       Cu859   2.010       .  S
O853        C863   1.278       .  A
O854       Cu859   2.008       .  S
O854        C864   1.277       .  A
O855       Cu860   2.008       .  S
O855        C864   1.278       .  A
O856       Cu860   2.011       .  S
O856        C863   1.277       .  A
O857       Cu860   2.009       .  S
O857        C862   1.277       .  A
O858       Cu860   2.008       .  S
O858        C861   1.277       .  A
Cu859      Cu860   2.375       .  S
C861        C952   1.466       .  S
C862        C936   1.464       .  S
C863        C875   1.469       .  S
C864        C891   1.468       .  S
C865        C870   1.381       .  A
C865        C866   1.402       .  A
C865        O871   1.316       .  A
C866        C867   1.401       .  A
C866        H877   1.082       .  S
C867        C876   1.360       .  A
C867        C868   1.380       .  A
C868        C869   1.404       .  A
C868        O874   1.319       .  A
C869        C870   1.403       .  A
C869        H878   1.082       .  S
C870        C873   1.364       .  A
O871        C872   1.330       .  A
C872        C873   1.392       .  A
C873        H879   1.083       .  S
O874        C875   1.331       .  A
C875        C876   1.390       .  A
C876        H880   1.083       .  S
C881        C886   1.381       .  A
C881        C882   1.401       .  A
C881        O887   1.316       .  A
C882        C883   1.400       .  A
C882        H893   1.082       .  S
C883        C892   1.360       .  A
C883        C884   1.380       .  A
C884        C885   1.404       .  A
C884        O890   1.319       .  A
C885        C886   1.403       .  A
C885        H894   1.082       .  S
C886        C889   1.364       .  A
O887        C888   1.330       .  A
C888        C889   1.392       .  A
C889        H895   1.082       .  S
O890        C891   1.331       .  A
C891        C892   1.390       .  A
C892        H896   1.083       .  S
C897       C1286   1.381       .  A
C897        C898   1.403       .  A
C897        O903   1.320       .  A
C898        C899   1.403       .  A
C898        H909   1.082       .  S
C899        C908   1.361       .  A
C899       C1284   1.381       .  A
C900       C1283   1.381   1_545  A
C900        C901   1.401       .  A
C900        O906   1.318       .  A
C901        C902   1.401       .  A
C901        H910   1.082       .  S
C902       C1281   1.381   1_545  A
C902        C905   1.359       .  A
O903        C904   1.331       .  A
C904       C1289   1.390       .  A
C905       C1288   1.391   1_545  A
C905        H911   1.082       .  S
O906        C907   1.329   1_545  A
C907       C1292   1.392       .  A
C908       C1291   1.392       .  A
C908        H912   1.082       .  S
C913       C1302   1.381   1_545  A
C913        C914   1.403       .  A
C913        O919   1.319       .  A
C914        C915   1.403       .  A
C914        H925   1.082       .  S
C915        C924   1.362       .  A
C915       C1300   1.381   1_545  A
C916       C1299   1.381       .  A
C916        C917   1.402       .  A
C916        O922   1.318       .  A
C917        C918   1.402       .  A
C917        H926   1.082       .  S
C918       C1297   1.381       .  A
C918        C921   1.360       .  A
O919        C920   1.331   1_545  A
C920       C1305   1.391       .  A
C921       C1304   1.391       .  A
C921        H927   1.083       .  S
O922        C923   1.330       .  A
C923       C1308   1.391       .  A
C924       C1307   1.391       .  A
C924        H928   1.083       .  S
C929        C934   1.381       .  A
C929        C930   1.402       .  A
C929        O935   1.318       .  A
C930        C931   1.401       .  A
C930        H941   1.082       .  S
C931        C940   1.359       .  A
C931        C932   1.380       .  A
C932        C933   1.403       .  A
C932        O938   1.318       .  A
C933        C934   1.402       .  A
C933        H942   1.082       .  S
C934        C937   1.361       .  A
O935        C936   1.330       .  A
C936        C937   1.390       .  A
C937        H943   1.083       .  S
O938        C939   1.332       .  A
C939        C940   1.393       .  A
C940        H944   1.083       .  S
C945        C950   1.381       .  A
C945        C946   1.403       .  A
C945        O951   1.320       .  A
C946        C947   1.402       .  A
C946        H957   1.082       .  S
C947        C956   1.359       .  A
C947        C948   1.380       .  A
C948        C949   1.403       .  A
C948        O954   1.319       .  A
C949        C950   1.403       .  A
C949        H958   1.083       .  S
C950        C953   1.361       .  A
O951        C952   1.330       .  A
C952        C953   1.390       .  A
C953        H959   1.082       .  S
O954        C955   1.332       .  A
C955        C956   1.394       .  A
C956        H960   1.082       .  S
C961       C1350   1.381   1_545  A
C961        C962   1.402       .  A
C961        O967   1.318       .  A
C962        C963   1.401       .  A
C962        H973   1.082       .  S
C963        C972   1.359       .  A
C963       C1348   1.379   1_545  A
C964       C1347   1.379       .  A
C964        C965   1.403       .  A
C964        O970   1.318       .  A
C965        C966   1.403       .  A
C965        H974   1.082       .  S
C966       C1345   1.381       .  A
C966        C969   1.362       .  A
O967        C968   1.329   1_545  A
C968       C1353   1.390       .  A
C969       C1352   1.390       .  A
C969        H975   1.082       .  S
O970        C971   1.332       .  A
C971       C1356   1.394       .  A
C972       C1355   1.394   1_545  A
C972        H976   1.082       .  S
C977       C1366   1.381       .  A
C977        C978   1.400       .  A
C977        O983   1.317       .  A
C978        C979   1.399       .  A
C978        H989   1.083       .  S
C979        C988   1.357       .  A
C979       C1364   1.380       .  A
C980       C1363   1.380   1_545  A
C980        C981   1.404       .  A
C980        O986   1.319       .  A
C981        C982   1.403       .  A
C981        H990   1.083       .  S
C982       C1361   1.381   1_545  A
C982        C985   1.362       .  A
O983       C1368   1.328       .  A
C984        C985   1.391       .  A
C984       O1367   1.328   1_545  A
C985        H991   1.082       .  S
O986       C1371   1.332   1_545  A
C987        C988   1.392       .  A
C987       O1370   1.332       .  A
C988        H992   1.083       .  S
C993        C998   1.379   1_556  A
C993        C994   1.401       .  A
C993        O999   1.316       .  A
C994        C995   1.400       .  A
C994       H1005   1.082       .  S
C995       C1004   1.360       .  A
C995        C996   1.381   1_556  A
C996        C997   1.406       .  A
C996       O1002   1.321       .  A
C997        C998   1.404       .  A
C997       H1006   1.082       .  S
C998       C1001   1.364       .  A
O999       C1000   1.329   1_556  A
C1000      C1001   1.394       .  A
C1001      H1007   1.082       .  S
O1002      C1003   1.331       .  A
C1003      C1004   1.388   1_554  A
C1004      H1008   1.083       .  S
C1009      C1014   1.379   1_554  A
C1009      C1010   1.401       .  A
C1009      O1015   1.315       .  A
C1010      C1011   1.400       .  A
C1010      H1021   1.082       .  S
C1011      C1020   1.360       .  A
C1011      C1012   1.381   1_554  A
C1012      C1013   1.406       .  A
C1012      O1018   1.320       .  A
C1013      C1014   1.404       .  A
C1013      H1022   1.082       .  S
C1014      C1017   1.364       .  A
O1015      C1016   1.329   1_554  A
C1016      C1017   1.395       .  A
C1017      H1023   1.082       .  S
O1018      C1019   1.331   1_556  A
C1019      C1020   1.388       .  A
C1020      H1024   1.083       .  S
C1025      C1414   1.381   1_554  A
C1025      C1026   1.403       .  A
C1025      O1031   1.318       .  A
C1026      C1027   1.402       .  A
C1026      H1037   1.082       .  S
C1027      C1036   1.358       .  A
C1027      C1412   1.379   1_554  A
C1028      C1411   1.379   1_546  A
C1028      C1029   1.401       .  A
C1028      O1034   1.317       .  A
C1029      C1030   1.401       .  A
C1029      H1038   1.082       .  S
C1030      C1409   1.381   1_546  A
C1030      C1033   1.360       .  A
O1031      C1032   1.330   1_554  A
C1032      C1417   1.389       .  A
C1033      C1416   1.389       .  A
C1033      H1039   1.083       .  S
O1034      C1419   1.331   1_545  A
C1035      C1036   1.395   1_556  A
C1035      O1418   1.331       .  A
C1036      H1040   1.082       .  S
C1041      C1430   1.381   1_546  A
C1041      C1042   1.402       .  A
C1041      O1047   1.318       .  A
C1042      C1043   1.401       .  A
C1042      H1053   1.082       .  S
C1043      C1052   1.358       .  A
C1043      C1428   1.379   1_546  A
C1044      C1427   1.379   1_554  A
C1044      C1045   1.402       .  A
C1044      O1050   1.317       .  A
C1045      C1046   1.401       .  A
C1045      H1054   1.082       .  S
C1046      C1425   1.381   1_554  A
C1046      C1049   1.360       .  A
O1047      C1432   1.329   1_545  A
C1048      C1049   1.389   1_556  A
C1048      O1431   1.329       .  A
C1049      H1055   1.083       .  S
O1050      C1051   1.331   1_554  A
C1051      C1436   1.393       .  A
C1052      C1435   1.393       .  A
C1052      H1056   1.082       .  S
C1057      C1058   1.403       .  A
C1057      O1063   1.318       .  A
C1058      C1059   1.402       .  A
C1058      H1069   1.083       .  S
C1059      C1068   1.361       .  A
C1060      C1061   1.402       .  A
C1060      O1066   1.318       .  A
C1061      C1062   1.401       .  A
C1061      H1070   1.083       .  S
C1062      C1065   1.358       .  A
C1064      C1065   1.394       .  A
C1065      H1071   1.082       .  S
O1066      C1067   1.329   1_655  A
C1068      H1072   1.082       .  S
C1073      C1074   1.402       .  A
C1073      O1079   1.317       .  A
C1074      C1075   1.401       .  A
C1074      H1085   1.082       .  S
C1075      C1084   1.359       .  A
C1076      C1077   1.403       .  A
C1076      O1082   1.317       .  A
C1077      C1078   1.403       .  A
C1077      H1086   1.082       .  S
C1078      C1081   1.362       .  A
O1079      C1080   1.329   1_655  A
C1081      H1087   1.082       .  S
C1083      C1084   1.394       .  A
C1084      H1088   1.082       .  S
C1089      C1090   1.403       .  A
C1089      O1095   1.320       .  A
C1090      C1091   1.403       .  A
C1090      H1101   1.082       .  S
C1091      C1100   1.361       .  A
C1092      C1093   1.401       .  A
C1092      O1098   1.318       .  A
C1093      C1094   1.401       .  A
C1093      H1102   1.082       .  S
C1094      C1097   1.359       .  A
O1095      C1096   1.331   1_655  A
C1097      H1103   1.082       .  S
C1099      C1100   1.391   1_455  A
C1100      H1104   1.082       .  S
C1105      C1106   1.402       .  A
C1105      O1111   1.318       .  A
C1106      C1107   1.401       .  A
C1106      H1117   1.082       .  S
C1107      C1116   1.360       .  A
C1108      C1109   1.403       .  A
C1108      O1114   1.319       .  A
C1109      C1110   1.403       .  A
C1109      H1118   1.082       .  S
C1110      C1113   1.362       .  A
O1111      C1112   1.330   1_655  A
C1113      H1119   1.082       .  S
C1115      C1116   1.391   1_455  A
C1116      H1120   1.082       .  S
C1121      C1122   1.400       .  A
C1121      O1127   1.315       .  A
C1122      C1123   1.399       .  A
C1122      H1133   1.082       .  S
C1123      C1132   1.359       .  A
C1124      C1125   1.407       .  A
C1124      O1130   1.321       .  A
C1125      C1126   1.405       .  A
C1125      H1134   1.082       .  S
C1126      C1129   1.365       .  A
C1128      C1129   1.396   1_455  A
C1129      H1135   1.082       .  S
O1130      C1131   1.332   1_655  A
C1132      H1136   1.083       .  S
C1137      C1138   1.400       .  A
C1137      O1143   1.314       .  A
C1138      C1139   1.399       .  A
C1138      H1149   1.082       .  S
C1139      C1148   1.358       .  A
C1140      C1141   1.407       .  A
C1140      O1146   1.321       .  A
C1141      C1142   1.405       .  A
C1141      H1150   1.082       .  S
C1142      C1145   1.365       .  A
O1143      C1144   1.329   1_554  A
C1145      H1151   1.082       .  S
C1147      C1148   1.387   1_456  A
C1148      H1152   1.083       .  S
O1153     Cu1161   2.016   1_556  S
O1153      C1163   1.277       .  A
O1154     Cu1161   2.012       .  S
O1154      C1164   1.278       .  A
O1155     Cu1161   1.996   1_556  S
O1155      C1165   1.276       .  A
O1156     Cu1161   2.016       .  S
O1156      C1166   1.278       .  A
O1157     Cu1162   2.002       .  S
O1158     Cu1162   2.021   1_556  S
O1159     Cu1162   2.013       .  S
O1160     Cu1162   2.005       .  S
O1167     Cu1175   2.010       .  S
O1168     Cu1175   2.007       .  S
O1169     Cu1175   2.012       .  S
O1170     Cu1175   2.011       .  S
O1171     Cu1176   2.005       .  S
O1171      C1180   1.277   1_655  A
O1172     Cu1176   2.006       .  S
O1172      C1179   1.277   1_655  A
O1173     Cu1176   2.010       .  S
O1173      C1178   1.277   1_655  A
O1174     Cu1176   2.007       .  S
O1174      C1177   1.277   1_655  A
C1177      C1464   1.463       .  S
C1178      C1451   1.464       .  S
C1179      C1496   1.468       .  S
C1180      C1483   1.468       .  S
C1181      C1384   1.491       .  S
C1182      C1419   1.492   1_545  S
C1183      C1528   1.491       .  S
C1183      C1184   1.419       .  A
C1184      C1400   1.491       .  S
C1184      C1185   1.419   1_565  A
C1185      C1435   1.490       .  S
C1186      C1512   1.492       .  S
C1187      C1339   1.492       .  S
C1187      C1188   1.420       .  A
C1187      C1192   1.421       .  A
C1188      C1467   1.494       .  S
C1189      C1355   1.493       .  S
C1190      C1323   1.490       .  S
C1191      C1448   1.495       .  S
C1192      C1371   1.488       .  S
O1193     Cu1201   2.008       .  S
O1194     Cu1201   2.006       .  S
O1195     Cu1201   2.016   1_554  S
O1196     Cu1201   1.997       .  S
O1197     Cu1202   2.020       .  S
O1197      C1206   1.279       .  A
O1198     Cu1202   2.002   1_554  S
O1198      C1205   1.276   1_565  A
O1199     Cu1202   2.007       .  S
O1199      C1204   1.276   1_565  A
O1200     Cu1202   2.003       .  S
O1200      C1203   1.277       .  A
C1203      C1432   1.462       .  S
C1204      C1416   1.463       .  S
C1205      C1307   1.468       .  S
C1206      C1288   1.468       .  S
O1207     Cu1215   2.008       .  S
O1207      C1217   1.277       .  A
O1208     Cu1215   2.008       .  S
O1208      C1218   1.277       .  A
O1209     Cu1215   2.011       .  S
O1209      C1219   1.278       .  A
O1210     Cu1215   2.014       .  S
O1210      C1220   1.278       .  A
O1211     Cu1216   2.006       .  S
O1212     Cu1216   2.004       .  S
O1213     Cu1216   2.010       .  S
O1214     Cu1216   2.009       .  S
C1217      C1368   1.463       .  S
C1218      C1352   1.464       .  S
C1219      C1291   1.467       .  S
C1220      C1304   1.469       .  S
O1221     Cu1229   2.011       .  S
O1221      C1231   1.278       .  A
O1222     Cu1229   2.012       .  S
O1222      C1232   1.277       .  A
O1223     Cu1229   1.998   1_556  S
O1223      C1233   1.276       .  A
O1224     Cu1229   2.019       .  S
O1224      C1234   1.279       .  A
O1225     Cu1230   1.999       .  S
O1225      C1234   1.276       .  A
O1226     Cu1230   2.019   1_556  S
O1226      C1233   1.279       .  A
O1227     Cu1230   2.010       .  S
O1227      C1232   1.278       .  A
O1228     Cu1230   2.013       .  S
O1228      C1231   1.277       .  A
Cu1229    Cu1230   2.377       .  S
C1231      C1387   1.465       .  S
C1232      C1403   1.465       .  S
C1233      C1256   1.468       .  S
C1234      C1272   1.468       .  S
O1235     Cu1243   2.014       .  S
O1235      C1245   1.277       .  A
O1236     Cu1243   2.011       .  S
O1236      C1246   1.277       .  A
O1237     Cu1243   2.010       .  S
O1237      C1247   1.278       .  A
O1238     Cu1243   2.008       .  S
O1238      C1248   1.277       .  A
O1239     Cu1244   2.008       .  S
O1239      C1248   1.278       .  A
O1240     Cu1244   2.011       .  S
O1240      C1247   1.277       .  A
O1241     Cu1244   2.009       .  S
O1241      C1246   1.277       .  A
O1242     Cu1244   2.008       .  S
O1242      C1245   1.277       .  A
Cu1243    Cu1244   2.375       .  S
C1245      C1336   1.466       .  S
C1246      C1320   1.464       .  S
C1247      C1259   1.469       .  S
C1248      C1275   1.468       .  S
C1249      C1254   1.381       .  A
C1249      C1250   1.402       .  A
C1249      O1255   1.316       .  A
C1250      C1251   1.401       .  A
C1250      H1261   1.082       .  S
C1251      C1260   1.360       .  A
C1251      C1252   1.380       .  A
C1252      C1253   1.405       .  A
C1252      O1258   1.319       .  A
C1253      C1254   1.403       .  A
C1253      H1262   1.082       .  S
C1254      C1257   1.364       .  A
O1255      C1256   1.330       .  A
C1256      C1257   1.392       .  A
C1257      H1263   1.082       .  S
O1258      C1259   1.331       .  A
C1259      C1260   1.390       .  A
C1260      H1264   1.083       .  S
C1265      C1270   1.381       .  A
C1265      C1266   1.401       .  A
C1265      O1271   1.316       .  A
C1266      C1267   1.400       .  A
C1266      H1277   1.082       .  S
C1267      C1276   1.360       .  A
C1267      C1268   1.380       .  A
C1268      C1269   1.404       .  A
C1268      O1274   1.319       .  A
C1269      C1270   1.403       .  A
C1269      H1278   1.082       .  S
C1270      C1273   1.364       .  A
O1271      C1272   1.330       .  A
C1272      C1273   1.392       .  A
C1273      H1279   1.083       .  S
O1274      C1275   1.331       .  A
C1275      C1276   1.390       .  A
C1276      H1280   1.083       .  S
C1281      C1282   1.403       .  A
C1281      O1287   1.320       .  A
C1282      C1283   1.403       .  A
C1282      H1293   1.082       .  S
C1283      C1292   1.361       .  A
C1284      C1285   1.401       .  A
C1284      O1290   1.318       .  A
C1285      C1286   1.401       .  A
C1285      H1294   1.082       .  S
C1286      C1289   1.359       .  A
O1287      C1288   1.331       .  A
C1289      H1295   1.082       .  S
O1290      C1291   1.329       .  A
C1292      H1296   1.082       .  S
C1297      C1298   1.403       .  A
C1297      O1303   1.319       .  A
C1298      C1299   1.403       .  A
C1298      H1309   1.082       .  S
C1299      C1308   1.362       .  A
C1300      C1301   1.402       .  A
C1300      O1306   1.318       .  A
C1301      C1302   1.402       .  A
C1301      H1310   1.082       .  S
C1302      C1305   1.360       .  A
O1303      C1304   1.331       .  A
C1305      H1311   1.083       .  S
O1306      C1307   1.330   1_565  A
C1308      H1312   1.083       .  S
C1313      C1318   1.381       .  A
C1313      C1314   1.402       .  A
C1313      O1319   1.318       .  A
C1314      C1315   1.401       .  A
C1314      H1325   1.082       .  S
C1315      C1324   1.359       .  A
C1315      C1316   1.380       .  A
C1316      C1317   1.403       .  A
C1316      O1322   1.318       .  A
C1317      C1318   1.402       .  A
C1317      H1326   1.082       .  S
C1318      C1321   1.361       .  A
O1319      C1320   1.330       .  A
C1320      C1321   1.390       .  A
C1321      H1327   1.083       .  S
O1322      C1323   1.332       .  A
C1323      C1324   1.393       .  A
C1324      H1328   1.082       .  S
C1329      C1334   1.381       .  A
C1329      C1330   1.403       .  A
C1329      O1335   1.320       .  A
C1330      C1331   1.402       .  A
C1330      H1341   1.082       .  S
C1331      C1340   1.359       .  A
C1331      C1332   1.380       .  A
C1332      C1333   1.403       .  A
C1332      O1338   1.319       .  A
C1333      C1334   1.403       .  A
C1333      H1342   1.083       .  S
C1334      C1337   1.361       .  A
O1335      C1336   1.330       .  A
C1336      C1337   1.390       .  A
C1337      H1343   1.082       .  S
O1338      C1339   1.332       .  A
C1339      C1340   1.394       .  A
C1340      H1344   1.082       .  S
C1345      C1346   1.402       .  A
C1345      O1351   1.318       .  A
C1346      C1347   1.401       .  A
C1346      H1357   1.082       .  S
C1347      C1356   1.359       .  A
C1348      C1349   1.403       .  A
C1348      O1354   1.318       .  A
C1349      C1350   1.403       .  A
C1349      H1358   1.082       .  S
C1350      C1353   1.362       .  A
O1351      C1352   1.329       .  A
C1353      H1359   1.083       .  S
O1354      C1355   1.332       .  A
C1356      H1360   1.082       .  S
C1361      C1362   1.400       .  A
C1361      O1367   1.317       .  A
C1362      C1363   1.399       .  A
C1362      H1373   1.083       .  S
C1363      C1372   1.357       .  A
C1364      C1365   1.404       .  A
C1364      O1370   1.319       .  A
C1365      C1366   1.403       .  A
C1365      H1374   1.083       .  S
C1366      C1369   1.362       .  A
C1368      C1369   1.391       .  A
C1369      H1375   1.082       .  S
C1371      C1372   1.392       .  A
C1372      H1376   1.083       .  S
C1377      C1382   1.379   1_556  A
C1377      C1378   1.401       .  A
C1377      O1383   1.316       .  A
C1378      C1379   1.400       .  A
C1378      H1389   1.082       .  S
C1379      C1388   1.360       .  A
C1379      C1380   1.381   1_556  A
C1380      C1381   1.406       .  A
C1380      O1386   1.321       .  A
C1381      C1382   1.404       .  A
C1381      H1390   1.082       .  S
C1382      C1385   1.364       .  A
O1383      C1384   1.329   1_556  A
C1384      C1385   1.394       .  A
C1385      H1391   1.082       .  S
O1386      C1387   1.331       .  A
C1387      C1388   1.388   1_554  A
C1388      H1392   1.083       .  S
C1393      C1398   1.379   1_554  A
C1393      C1394   1.401       .  A
C1393      O1399   1.315       .  A
C1394      C1395   1.400       .  A
C1394      H1405   1.082       .  S
C1395      C1404   1.360       .  A
C1395      C1396   1.381   1_554  A
C1396      C1397   1.406       .  A
C1396      O1402   1.320       .  A
C1397      C1398   1.404       .  A
C1397      H1406   1.082       .  S
C1398      C1401   1.364       .  A
O1399      C1400   1.329   1_554  A
C1400      C1401   1.395       .  A
C1401      H1407   1.082       .  S
O1402      C1403   1.331   1_556  A
C1403      C1404   1.388       .  A
C1404      H1408   1.083       .  S
C1409      C1410   1.403       .  A
C1409      O1415   1.318       .  A
C1410      C1411   1.402       .  A
C1410      H1421   1.082       .  S
C1411      C1420   1.358       .  A
C1412      C1413   1.401       .  A
C1412      O1418   1.317       .  A
C1413      C1414   1.401       .  A
C1413      H1422   1.082       .  S
C1414      C1417   1.360       .  A
O1415      C1416   1.330   1_564  A
C1417      H1423   1.083       .  S
C1419      C1420   1.395   1_556  A
C1420      H1424   1.082       .  S
C1425      C1426   1.402       .  A
C1425      O1431   1.318       .  A
C1426      C1427   1.401       .  A
C1426      H1437   1.082       .  S
C1427      C1436   1.358       .  A
C1428      C1429   1.402       .  A
C1428      O1434   1.317       .  A
C1429      C1430   1.401       .  A
C1429      H1438   1.082       .  S
C1430      C1433   1.360       .  A
C1432      C1433   1.389   1_556  A
C1433      H1439   1.083       .  S
O1434      C1435   1.331   1_564  A
C1436      H1440   1.082       .  S
C1441      C1442   1.403       .  A
C1441      O1447   1.318       .  A
C1442      C1443   1.402       .  A
C1442      H1453   1.083       .  S
C1443      C1452   1.361       .  A
C1444      C1445   1.402       .  A
C1444      O1450   1.318       .  A
C1445      C1446   1.401       .  A
C1445      H1454   1.082       .  S
C1446      C1449   1.358       .  A
C1448      C1449   1.394       .  A
C1449      H1455   1.082       .  S
O1450      C1451   1.329   1_655  A
C1452      H1456   1.082       .  S
C1457      C1458   1.402       .  A
C1457      O1463   1.317       .  A
C1458      C1459   1.401       .  A
C1458      H1469   1.082       .  S
C1459      C1468   1.359       .  A
C1460      C1461   1.403       .  A
C1460      O1466   1.317       .  A
C1461      C1462   1.403       .  A
C1461      H1470   1.082       .  S
C1462      C1465   1.362       .  A
O1463      C1464   1.329   1_655  A
C1465      H1471   1.082       .  S
C1467      C1468   1.394       .  A
C1468      H1472   1.082       .  S
C1473      C1474   1.403       .  A
C1473      O1479   1.320       .  A
C1474      C1475   1.403       .  A
C1474      H1485   1.082       .  S
C1475      C1484   1.361       .  A
C1476      C1477   1.401       .  A
C1476      O1482   1.318       .  A
C1477      C1478   1.401       .  A
C1477      H1486   1.082       .  S
C1478      C1481   1.359       .  A
O1479      C1480   1.331   1_655  A
C1481      H1487   1.082       .  S
C1483      C1484   1.391   1_455  A
C1484      H1488   1.082       .  S
C1489      C1490   1.402       .  A
C1489      O1495   1.318       .  A
C1490      C1491   1.401       .  A
C1490      H1501   1.082       .  S
C1491      C1500   1.360       .  A
C1492      C1493   1.403       .  A
C1492      O1498   1.319       .  A
C1493      C1494   1.403       .  A
C1493      H1502   1.082       .  S
C1494      C1497   1.362       .  A
O1495      C1496   1.330   1_655  A
C1497      H1503   1.082       .  S
C1499      C1500   1.391   1_455  A
C1500      H1504   1.082       .  S
C1505      C1506   1.400       .  A
C1505      O1511   1.315       .  A
C1506      C1507   1.399       .  A
C1506      H1517   1.082       .  S
C1507      C1516   1.359       .  A
C1508      C1509   1.407       .  A
C1508      O1514   1.321       .  A
C1509      C1510   1.405       .  A
C1509      H1518   1.082       .  S
C1510      C1513   1.365       .  A
C1512      C1513   1.396   1_455  A
C1513      H1519   1.082       .  S
O1514      C1515   1.332   1_655  A
C1516      H1520   1.083       .  S
C1521      C1522   1.400       .  A
C1521      O1527   1.314       .  A
C1522      C1523   1.399       .  A
C1522      H1533   1.082       .  S
C1523      C1532   1.358       .  A
C1524      C1525   1.407       .  A
C1524      O1530   1.321       .  A
C1525      C1526   1.405       .  A
C1525      H1534   1.082       .  S
C1526      C1529   1.365       .  A
O1527      C1528   1.328   1_554  A
C1529      H1535   1.082       .  S
C1531      C1532   1.387   1_456  A
C1532      H1536   1.083       .  S
