geometry optimzed in LAMMPS
_audit_creation_date              2020-12-01 
_audit_creation_method            'lammps2cif' 
_symmetry_space_group_name_H-M    'P1' 
_symmetry_Int_Tables_number       1 
_symmetry_cell_setting            triclinic 
loop_ 
_symmetry_equiv_pos_as_xyz 
  x,y,z 
_cell_length_a                    31.85568024 
_cell_length_b                    31.226986206059305 
_cell_length_c                    32.72727234461789 
_cell_angle_alpha                 92.34482664411092 
_cell_angle_beta                  77.81887112191576 
_cell_angle_gamma                 93.42888782127184 
loop_ 
_atom_site_label 
_atom_site_type_symbol 
_atom_site_fract_x 
_atom_site_fract_y 
_atom_site_fract_z 
_atom_site_charge 
N1          N  0.75980309  0.11343778  0.97768907    -0.02700
C2          C  0.71942144  0.12864893  0.98292811    -0.00100
C3          C  0.69579958  0.10176924  0.96047338    -0.23000
C4          C  0.72342053  0.07255730  0.93815965    -0.23200
C5          C  0.76346984  0.08173602  0.94763523    -0.00200
H6          H  0.66369340  0.10632677  0.95603453     0.13600
H7          H  0.71647919  0.05171908  0.91290453     0.13600
N8          N  0.63479615  0.32964198  0.00870340    -0.02700
C9          C  0.62945335  0.35397834  0.97666062    -0.00100
C10         C  0.66853224  0.35933223  0.94842750    -0.23000
C11         C  0.69540410  0.33069103  0.95859778    -0.23200
C12         C  0.67206932  0.30899825  0.99268054    -0.00200
H13         H  0.67403961  0.37482453  0.91862875     0.13600
H14         H  0.72598380  0.32233517  0.93949556     0.13600
N15         N  0.80763002  0.95507845  0.11670382    -0.02700
C16         C  0.83645072  0.92547852  0.12044059    -0.00100
C17         C  0.86831285  0.92332982  0.08471096    -0.23000
C18         C  0.86032412  0.95340655  0.05837674    -0.23200
C19         C  0.82398332  0.97343231  0.07897192    -0.00200
H20         H  0.89629198  0.90420803  0.07968658     0.13600
H21         H  0.88175670  0.96320027  0.02963922     0.13600
N22         N  0.66012323  0.05426757  0.26590456    -0.02700
C23         C  0.64822090  0.09561150  0.27622365    -0.00100
C24         C  0.65151983  0.11673819  0.23881753    -0.23000
C25         C  0.67087034  0.09040705  0.20642191    -0.23200
C26         C  0.67704137  0.05266373  0.22386472    -0.00200
H27         H  0.64801575  0.15065246  0.23567627     0.13600
H28         H  0.68301785  0.09948339  0.17435118     0.13600
O29         O  0.81414243  0.45821040  0.31750987    -0.73700
O30         O  0.88065640  0.36518855  0.33958204    -0.73700
O31         O  0.84919419  0.39127482  0.27390049    -0.73700
O32         O  0.84635759  0.43248808  0.38530503    -0.73800
O33         O  0.78611010  0.39322847  0.40891764    -0.73700
O34         O  0.78845594  0.35246400  0.29781533    -0.73700
O35         O  0.81872949  0.32791652  0.36268771    -0.73700
O36         O  0.75371183  0.41906853  0.34096084    -0.73700
Ni37       Ni  0.84981421  0.41344704  0.32846255     1.25400
Ni38       Ni  0.78455872  0.37206472  0.35347668     1.25400
C39         C  0.77294312  0.45273912  0.32295447     0.88500
C40         C  0.85978891  0.33129410  0.35531838     0.88500
C41         C  0.81667171  0.36813947  0.26763728     0.88500
C42         C  0.81911051  0.41546750  0.41568358     0.88600
O43         O  0.60852562  0.41229242  0.14282071    -0.73700
O44         O  0.68148987  0.31896080  0.11494209    -0.73700
O45         O  0.67107190  0.38080861  0.17276077    -0.73700
O46         O  0.61873925  0.34463831  0.08180200    -0.73800
O47         O  0.66638494  0.38807854  0.04109242    -0.73700
O48         O  0.72163940  0.42033198  0.13066946    -0.73700
O49         O  0.73033901  0.35951409  0.07207435    -0.73700
O50         O  0.65880011  0.45377465  0.10257449    -0.73700
Ni51       Ni  0.64248602  0.36310289  0.12937047     1.25400
Ni52       Ni  0.69527277  0.40742142  0.08470123     1.25400
C53         C  0.62474158  0.44945301  0.13112714     0.88500
C54         C  0.71914585  0.32504119  0.09202090     0.88500
C55         C  0.70806199  0.40046138  0.16464473     0.88500
C56         C  0.63857039  0.35595561  0.04539348     0.88600
O57         O  0.75451849  0.09950227  0.04842135    -0.73700
O58         O  0.80554582  0.08915521  0.14284591    -0.73700
O59         O  0.77771222  0.15213301  0.10538791    -0.73700
O60         O  0.78114875  0.03333837  0.08721417    -0.73800
O61         O  0.84815213  0.04198028  0.05025682    -0.73700
O62         O  0.84134984  0.16462702  0.06267277    -0.73700
O63         O  0.87074075  0.10365551  0.10335095    -0.73700
O64         O  0.81988430  0.10586928  0.00738580    -0.73700
Ni65       Ni  0.77747850  0.09287078  0.09708342     1.25400
Ni66       Ni  0.84752389  0.10384958  0.05395808     1.25400
C67         C  0.77893582  0.10689031  0.01269119     0.88500
C68         C  0.84586506  0.09870397  0.13913625     0.88500
C69         C  0.80785129  0.17802547  0.08771271     0.88500
C70         C  0.81679923  0.01792511  0.07004234     0.88600
O71         O  0.67302388  0.16542716  0.41397922    -0.73700
O72         O  0.76153628  0.12267652  0.32066869    -0.73700
O73         O  0.76136845  0.17337494  0.38830261    -0.73700
O74         O  0.67494251  0.10681652  0.34149818    -0.73800
O75         O  0.66438460  0.16388731  0.30739192    -0.73700
O76         O  0.75459257  0.22764739  0.34832901    -0.73700
O77         O  0.74889435  0.17691422  0.28372292    -0.73700
O78         O  0.66763350  0.21966176  0.37401375    -0.73700
Ni79       Ni  0.71690492  0.13976564  0.36813982     1.25400
Ni80       Ni  0.70788042  0.19881624  0.32771996     1.25400
C81         C  0.65829788  0.20251703  0.40978781     0.88500
C82         C  0.77115315  0.14557528  0.28772908     0.88500
C83         C  0.77566155  0.20895507  0.37127569     0.88500
C84         C  0.66079184  0.12297896  0.31175490     0.88600
N85         N  0.82105277  0.38435747  0.48582903    -0.02700
C86         C  0.85480261  0.38733004  0.50670201    -0.00100
C87         C  0.88238579  0.42197067  0.49350418    -0.23000
C88         C  0.86738299  0.44049618  0.46280992    -0.23200
C89         C  0.83095384  0.41652759  0.45732373    -0.00200
H90         H  0.91183075  0.43148752  0.50376684     0.13600
H91         H  0.88416062  0.46596411  0.44329780     0.13600
N92         N  0.64855307  0.24321282  0.47949474    -0.02700
C93         C  0.63241577  0.22986327  0.44511211    -0.00100
C94         C  0.61906976  0.26684733  0.42988195    -0.23000
C95         C  0.64230226  0.30110062  0.44351703    -0.23200
C96         C  0.66386381  0.28480214  0.47126949    -0.00200
H97         H  0.60549127  0.26805816  0.40228590     0.13600
H98         H  0.64696987  0.33276982  0.43053424     0.13600
O99         O  0.90794070  0.83226928  0.18918691    -0.73700
O100        O  0.85146873  0.92367110  0.25868118    -0.73700
O101        O  0.88282577  0.85051617  0.27203711    -0.73700
O102        O  0.87395776  0.90826063  0.17298257    -0.73800
O103        O  0.80892595  0.87671307  0.17465799    -0.73700
O104        O  0.81975409  0.81622232  0.26981445    -0.73700
O105        O  0.78801431  0.88899251  0.25907274    -0.73700
O106        O  0.84383317  0.80074369  0.18697683    -0.73700
Ni107      Ni  0.88154004  0.88021179  0.22241150     1.25400
Ni108      Ni  0.81308493  0.84459728  0.22198361     1.25400
C109        C  0.88500874  0.79941180  0.18031115     0.88500
C110        C  0.81122988  0.91768018  0.27432319     0.88500
C111        C  0.85071175  0.82576851  0.28834689     0.88500
C112        C  0.83946268  0.90293763  0.15832450     0.88600
O113        O  0.57995507  0.91911927  0.26925008    -0.73700
O114        O  0.67723756  0.93384073  0.32051229    -0.73700
O115        O  0.61158729  0.87590653  0.32307919    -0.73700
O116        O  0.64819304  0.97943661  0.26747724    -0.73800
O117        O  0.61207577  0.01735722  0.32111247    -0.73700
O118        O  0.57244304  0.91096693  0.37744528    -0.73700
O119        O  0.64047075  0.97052434  0.37516746    -0.73700
O120        O  0.54248450  0.95614116  0.32282987    -0.73700
Ni121      Ni  0.63041146  0.92597003  0.29324426     1.25400
Ni122      Ni  0.59017815  0.96521717  0.35106231     1.25400
C123        C  0.54403390  0.93310126  0.28889326     0.88500
C124        C  0.67556383  0.95547901  0.35481506     0.88500
C125        C  0.58553100  0.87594241  0.35856581     0.88500
C126        C  0.63957587  0.01571904  0.28615472     0.88600
O127        O  0.77960611  0.55992792  0.39337134    -0.73700
O128        O  0.81189932  0.67688509  0.41429398    -0.73700
O129        O  0.73798834  0.63133550  0.40679273    -0.73700
O130        O  0.85640432  0.60600874  0.39787403    -0.73800
O131        O  0.87140186  0.61793194  0.32948376    -0.73700
O132        O  0.75331773  0.64060965  0.33777610    -0.73700
O133        O  0.82588587  0.68714055  0.34538645    -0.73700
O134        O  0.79560975  0.56937268  0.32449453    -0.73700
Ni135      Ni  0.79646728  0.61799318  0.40556384     1.25400
Ni136      Ni  0.81233186  0.62904344  0.33181475     1.25400
C137        C  0.77670335  0.54763960  0.35627838     0.88500
C138        C  0.82393049  0.70102583  0.38311615     0.88500
C139        C  0.72611048  0.63710480  0.37245766     0.88500
C140        C  0.88385336  0.61084261  0.36304451     0.88600
O141        O  0.52389088  0.68115414  0.20514554    -0.73700
O142        O  0.55052436  0.62991648  0.30159869    -0.73700
O143        O  0.52877133  0.70659502  0.28532482    -0.73700
O144        O  0.54705600  0.60032542  0.22284306    -0.73800
O145        O  0.61667873  0.61841832  0.20077948    -0.73700
O146        O  0.59771268  0.72597310  0.26056860    -0.73700
O147        O  0.61950224  0.65036574  0.27750905    -0.73700
O148        O  0.59347934  0.69815602  0.18137645    -0.73700
Ni149      Ni  0.53488174  0.65362746  0.25395890     1.25400
Ni150      Ni  0.60913066  0.67393515  0.22880830     1.25400
C151        C  0.55423493  0.69915744  0.17791909     0.88500
C152        C  0.58945805  0.63481253  0.30610939     0.88500
C153        C  0.56216254  0.73095022  0.28677376     0.88500
C154        C  0.58499856  0.59071204  0.20355139     0.88600
N155        N  0.74747689  0.48766615  0.31595106    -0.02700
C156        C  0.74469913  0.51271259  0.35089913    -0.00100
C157        C  0.70358487  0.50995034  0.37519960    -0.23000
C158        C  0.67848834  0.48855995  0.35066532    -0.23200
C159        C  0.70528387  0.47931655  0.31232655    -0.00200
H160        H  0.69178095  0.52822275  0.40371391     0.13600
H161        H  0.64372823  0.48826801  0.35704737     0.13600
N162        N  0.61380015  0.51554119  0.17934365    -0.02700
C163        C  0.60312249  0.48812329  0.14868630    -0.00100
C164        C  0.57399455  0.50503568  0.12912096    -0.23000
C165        C  0.56506799  0.54407792  0.14786584    -0.23200
C166        C  0.58932806  0.55029493  0.17814821    -0.00200
H167        H  0.56164285  0.49094520  0.10295936     0.13600
H168        H  0.54347123  0.56628399  0.13979077     0.13600
N169        N  0.94502907  0.74832116  0.17287553    -0.02700
C170        C  0.94076720  0.70853904  0.19178518    -0.00100
C171        C  0.90031421  0.69029724  0.19054676    -0.23000
C172        C  0.87780773  0.72029310  0.17622337    -0.23200
C173        C  0.90451944  0.75691369  0.16887101    -0.00200
H174        H  0.88567275  0.66139993  0.20590377     0.13600
H175        H  0.84327733  0.71812342  0.17897341     0.13600
N176        N  0.96290900  0.63826779  0.35007035    -0.02700
C177        C  0.99323108  0.62897368  0.37336458    -0.00100
C178        C  0.98038046  0.59268224  0.39626934    -0.23000
C179        C  0.94078835  0.57963428  0.39029673    -0.23200
C180        C  0.93009509  0.60769618  0.36324563    -0.00200
H181        H  0.99657716  0.57938816  0.41843952     0.13600
H182        H  0.92007863  0.55450187  0.40707442     0.13600
N183        N  0.12993877  0.81042552  0.96302573    -0.02700
C184        C  0.13494291  0.84381610  0.93557266    -0.00100
C185        C  0.09640287  0.86218020  0.93719576    -0.23000
C186        C  0.06614349  0.84081807  0.96611581    -0.23200
C187        C  0.08632078  0.80954555  0.98225993    -0.00200
H188        H  0.09091808  0.88880781  0.91912729     0.13600
H189        H  0.03314309  0.84951389  0.97680314     0.13600
N190        N  0.30668149  0.69787899  0.97802088    -0.02700
C191        C  0.26266399  0.69712015  0.99245969    -0.00100
C192        C  0.25232846  0.67398935  0.02858366    -0.23000
C193        C  0.29033890  0.66270076  0.03791012    -0.23200
C194        C  0.32397075  0.67939241  0.00765441    -0.00200
H195        H  0.22079007  0.66949997  0.04857711     0.13600
H196        H  0.29300523  0.64888365  0.06699323     0.07600
O197        O  0.33457063  0.95518699  0.39535236    -0.73700
O198        O  0.37587649  0.91779303  0.28346217    -0.73700
O199        O  0.30906753  0.89749663  0.34274348    -0.73700
O200        O  0.40816851  0.97552520  0.33043211    -0.73800
O201        O  0.44438387  0.92711559  0.35332980    -0.73700
O202        O  0.34667075  0.84836464  0.36485874    -0.73700
O203        O  0.41383566  0.86920400  0.30612929    -0.73700
O204        O  0.36962863  0.90547516  0.41816688    -0.73700
Ni205      Ni  0.35578456  0.93934586  0.33772129     1.25400
Ni206      Ni  0.39553789  0.88635911  0.36220884     1.25400
C207        C  0.33538400  0.92640265  0.42200308     0.88500
C208        C  0.39947379  0.88568245  0.27710091     0.88500
C209        C  0.31246175  0.85941910  0.35453102     0.88500
C210        C  0.44340370  0.95617708  0.32699340     0.88600
O211        O  0.02572417  0.69167601  0.40415901    -0.73700
O212        O  0.12747019  0.76144965  0.41106656    -0.73700
O213        O  0.07974441  0.74310351  0.35544201    -0.73700
O214        O  0.07791847  0.71092395  0.46658838    -0.73800
O215        O  0.11856132  0.65646385  0.44083682    -0.73700
O216        O  0.11958130  0.68726010  0.33068737    -0.73700
O217        O  0.16792607  0.70659489  0.38549020    -0.73700
O218        O  0.06648278  0.63683914  0.38092829    -0.73700
Ni219      Ni  0.07568005  0.72833120  0.41103509     1.25400
Ni220      Ni  0.11915834  0.66934113  0.38430797     1.25400
C221        C  0.03051962  0.65494502  0.38485384     0.88500
C222        C  0.16404012  0.74630800  0.39569164     0.88500
C223        C  0.09994715  0.72017366  0.32541368     0.88500
C224        C  0.10371310  0.68224705  0.47116613     0.88600
O225        O  0.99852958  0.73041983  0.11188338    -0.73700
O226        O  0.11960579  0.74766134  0.07377750    -0.73700
O227        O  0.06602602  0.72605421  0.14301239    -0.73700
O228        O  0.05878497  0.75405976  0.03317445    -0.73800
O229        O  0.05342342  0.82243425  0.05414741    -0.73700
O230        O  0.06215266  0.79513690  0.16332392    -0.73700
O231        O  0.11654540  0.81688525  0.09414667    -0.73700
O232        O  0.99441086  0.79904530  0.13192537    -0.73700
Ni233      Ni  0.05984127  0.73711033  0.08899313     1.25400
Ni234      Ni  0.05555109  0.81117617  0.11084118     1.25400
C235        C  0.98020503  0.75972123  0.13729662     0.88500
C236        C  0.13768857  0.78352495  0.08230419     0.88500
C237        C  0.06734515  0.75614479  0.17022737     0.88500
C238        C  0.06509509  0.79405468  0.02496331     0.88600
O239        O  0.37408691  0.67569087  0.05260644    -0.73700
O240        O  0.37947944  0.75868795  0.13795756    -0.73700
O241        O  0.32132861  0.73090720  0.09722813    -0.73700
O242        O  0.43639489  0.70797421  0.09964840    -0.73800
O243        O  0.45983071  0.75455039  0.04936555    -0.73700
O244        O  0.34330709  0.78393533  0.05278074    -0.73700
O245        O  0.40687738  0.80864113  0.09108346    -0.73700
O246        O  0.38942652  0.72590048  0.00547321    -0.73700
Ni247      Ni  0.37737063  0.71580665  0.09792820     1.25400
Ni248      Ni  0.40154377  0.76946857  0.04685861     1.25400
C249        C  0.36726809  0.69158576  0.01919421     0.88500
C250        C  0.39587364  0.79606665  0.12857798     0.88500
C251        C  0.31340865  0.76287830  0.07739628     0.88500
C252        C  0.46620723  0.73413376  0.08100987     0.88600
N253        N  0.50547286  0.92577494  0.27181357    -0.02700
C254        C  0.50687979  0.91586521  0.22970976    -0.00100
C255        C  0.48294268  0.94561311  0.21544418    -0.23000
C256        C  0.46253775  0.96957699  0.24936860    -0.23200
C257        C  0.47434667  0.95502198  0.28440332    -0.00200
H258        H  0.47527877  0.94593420  0.18483511     0.13600
H259        H  0.43669109  0.99044678  0.24904250     0.13600
N260        N  0.51591679  0.74586326  0.13508140    -0.02700
C261        C  0.50911112  0.73743042  0.09440408    -0.00100
C262        C  0.53791451  0.70854637  0.07361846    -0.23000
C263        C  0.56006023  0.69500280  0.10160870    -0.23200
C264        C  0.54515479  0.71630379  0.13901468    -0.00200
H265        H  0.53768101  0.69324364  0.04335803     0.13600
H266        H  0.58130228  0.66861355  0.09651700     0.13600
O267        O  0.19126626  0.94195002  0.83211066    -0.73700
O268        O  0.27625949  0.90306167  0.88661405    -0.73700
O269        O  0.27861277  0.94193303  0.81499704    -0.73700
O270        O  0.18745113  0.89868005  0.90477901    -0.73800
O271        O  0.18786261  0.83435751  0.87269609    -0.73700
O272        O  0.27058798  0.87980523  0.78068654    -0.73700
O273        O  0.27579036  0.84134345  0.84973397    -0.73700
O274        O  0.18248790  0.87775602  0.80251932    -0.73700
Ni275      Ni  0.23297895  0.92363660  0.86113970     1.25400
Ni276      Ni  0.22878319  0.85603707  0.82533272     1.25400
C277        C  0.17266833  0.91726223  0.80866709     0.88500
C278        C  0.29312972  0.86779511  0.87330119     0.88500
C279        C  0.29089040  0.91595916  0.78388228     0.88500
C280        C  0.17319718  0.85906901  0.90376597     0.88600
O281        O  0.28699195  0.92830610  0.60035751    -0.73700
O282        O  0.34355231  0.82260990  0.57575014    -0.73700
O283        O  0.34029295  0.88547032  0.63534547    -0.73700
O284        O  0.28915716  0.86328493  0.54201504    -0.73800
O285        O  0.34556653  0.89768662  0.50246975    -0.73700
O286        O  0.39789684  0.92006752  0.59745712    -0.73700
O287        O  0.40051267  0.85616796  0.53556874    -0.73700
O288        O  0.34495411  0.96138687  0.56217098    -0.73700
Ni289      Ni  0.31319894  0.87363519  0.58987450     1.25400
Ni290      Ni  0.37443548  0.90995032  0.54788429     1.25400
C291        C  0.30814301  0.96285338  0.58707485     0.88500
C292        C  0.37949721  0.82183961  0.54931091     0.88500
C293        C  0.37539691  0.90814156  0.63279034     0.88500
C294        C  0.30893538  0.87675074  0.50656744     0.88600
O295        O  0.30589929  0.63884535  0.84498150    -0.73700
O296        O  0.35402157  0.75210648  0.85171246    -0.73700
O297        O  0.35472653  0.69101958  0.79167681    -0.73700
O298        O  0.30409919  0.70152949  0.90697813    -0.73800
O299        O  0.36304740  0.67731171  0.92253059    -0.73700
O300        O  0.41334491  0.66341244  0.80509786    -0.73700
O301        O  0.41360557  0.72792428  0.86646375    -0.73700
O302        O  0.36376770  0.61277722  0.86104589    -0.73700
Ni303      Ni  0.32780060  0.69675220  0.84831672     1.25400
Ni304      Ni  0.39077434  0.66948227  0.86434745     1.25400
C305        C  0.32714821  0.60665567  0.85049163     0.88500
C306        C  0.39033475  0.75881785  0.86221763     0.88500
C307        C  0.39018797  0.67277461  0.77945924     0.88500
C308        C  0.32577511  0.69303542  0.93411421     0.88600
O309        O  0.20057187  0.68360821  0.59948355    -0.73700
O310        O  0.28054147  0.66785315  0.66817738    -0.73700
O311        O  0.28528992  0.70234886  0.59447226    -0.73700
O312        O  0.19589034  0.64388181  0.67447979    -0.73800
O313        O  0.21718907  0.58170093  0.64349561    -0.73700
O314        O  0.30126844  0.64011918  0.56020458    -0.73700
O315        O  0.30209229  0.60712217  0.63399795    -0.73700
O316        O  0.21547533  0.61964390  0.56882861    -0.73700
Ni317      Ni  0.23967071  0.67648631  0.63542477     1.25400
Ni318      Ni  0.25919024  0.60970109  0.60045193     1.25400
C319        C  0.19507019  0.65459967  0.57234795     0.88500
C320        C  0.30690215  0.63793598  0.66008407     0.88500
C321        C  0.30890146  0.68025782  0.56542154     0.88500
C322        C  0.19287311  0.60253873  0.67274469     0.88600
N323        N  0.28731448  0.87356711  0.47234828    -0.02700
C324        C  0.24610861  0.85574403  0.47493428    -0.00100
C325        C  0.22511373  0.88071548  0.45244292    -0.23000
C326        C  0.25412783  0.91264385  0.43420336    -0.23200
C327        C  0.29270847  0.90715269  0.44587199    -0.00200
H328        H  0.19278898  0.87472846  0.44738832     0.13600
H329        H  0.24854758  0.93503336  0.41177787     0.13600
N330        N  0.15356491  0.68928165  0.52312632    -0.02700
C331        C  0.16011129  0.65805546  0.54939946    -0.00100
C332        C  0.12683372  0.62723128  0.55501761    -0.23000
C333        C  0.09861099  0.63841241  0.53180902    -0.23200
C334        C  0.11525533  0.67567333  0.51187440    -0.00200
H335        H  0.12384008  0.59890184  0.57364357     0.13600
H336        H  0.07097754  0.61879755  0.52645187     0.13600
O337        O  0.86656543  0.06673548  0.80677797    -0.73700
O338        O  0.76083687  0.11909046  0.85539545    -0.73700
O339        O  0.82105273  0.12671482  0.78727204    -0.73700
O340        O  0.80133421  0.05578601  0.88114324    -0.73800
O341        O  0.83579303  0.10369013  0.91530297    -0.73700
O342        O  0.85862056  0.17390867  0.82056147    -0.73700
O343        O  0.79785555  0.16718948  0.88823127    -0.73700
O344        O  0.90225469  0.11321483  0.84133117    -0.73700
Ni345      Ni  0.81131320  0.08924659  0.83184887     1.25400
Ni346      Ni  0.85040114  0.14055452  0.86820090     1.25400
C347        C  0.90057333  0.09095835  0.80778480     0.88500
C348        C  0.76340037  0.15440123  0.87633598     0.88500
C349        C  0.84307396  0.16193658  0.78878070     0.88500
C350        C  0.80410692  0.07634346  0.91525510     0.88600
O351        O  0.52614864  0.36109275  0.87651245    -0.73700
O352        O  0.62846783  0.30166191  0.88044826    -0.73700
O353        O  0.56823826  0.29637532  0.83650577    -0.73700
O354        O  0.59119576  0.36890831  0.92451965    -0.73800
O355        O  0.56209990  0.31890429  0.96981588    -0.73700
O356        O  0.52213018  0.25458721  0.88086691    -0.73700
O357        O  0.58720284  0.25226166  0.91992237    -0.73700
O358        O  0.49248961  0.32251280  0.93026725    -0.73700
Ni359      Ni  0.57981632  0.33448777  0.87828354     1.25400
Ni360      Ni  0.53898761  0.28592454  0.92749106     1.25400
C361        C  0.49092763  0.34587597  0.89924504     0.88500
C362        C  0.62335480  0.26509754  0.89797782     0.88500
C363        C  0.54096714  0.26461246  0.84362256     0.88500
C364        C  0.59013371  0.34975138  0.95860426     0.88600
O365        O  0.89061317  0.32802302  0.52670217    -0.73700
O366        O  0.90454049  0.24903957  0.60890581    -0.73700
O367        O  0.84764793  0.25840607  0.56266781    -0.73700
O368        O  0.95337162  0.31494293  0.57748253    -0.73800
O369        O  0.91761361  0.35800334  0.62674603    -0.73700
O370        O  0.81178752  0.30159187  0.61237664    -0.73700
O371        O  0.86885524  0.29383129  0.65748189    -0.73700
O372        O  0.85526506  0.37069491  0.57678317    -0.73700
Ni373      Ni  0.90086824  0.28693500  0.56627709     1.25400
Ni374      Ni  0.86243504  0.33343251  0.61943890     1.25400
C375        C  0.86573920  0.35938009  0.53817345     0.88500
C376        C  0.88745052  0.25905456  0.64669047     0.88500
C377        C  0.81370179  0.26734172  0.58932443     0.88500
C378        C  0.95224618  0.33890490  0.61057516     0.88600
O379        O  0.61578902  0.27062152  0.54642891    -0.73700
O380        O  0.58310253  0.25306994  0.66161532    -0.73700
O381        O  0.65250909  0.24183588  0.60428440    -0.73700
O382        O  0.53950692  0.28055292  0.60901564    -0.73800
O383        O  0.51957381  0.21394945  0.59174919    -0.73700
O384        O  0.62929877  0.17345702  0.59731956    -0.73700
O385        O  0.55438353  0.18743294  0.65259210    -0.73700
O386        O  0.60024957  0.20189699  0.53287338    -0.73700
Ni387      Ni  0.59828042  0.26392964  0.60514803     1.25400
Ni388      Ni  0.57471942  0.19166979  0.59248836     1.25400
C389        C  0.62032363  0.23805428  0.52103025     0.88500
C390        C  0.56145624  0.21965670  0.67635427     0.88500
C391        C  0.65847089  0.20152334  0.60263964     0.88500
C392        C  0.50956218  0.25175678  0.60642115     0.88600
N393        N  0.44006373  0.35812807  0.84868324    -0.02700
C394        C  0.42478485  0.31997581  0.83183298    -0.00100
C395        C  0.41013034  0.29222876  0.86412370    -0.23000
C396        C  0.42220503  0.30912856  0.89883605    -0.23200
C397        C  0.44806436  0.34531600  0.88626217    -0.00200
H398        H  0.39687555  0.26019975  0.86255035     0.13600
H399        H  0.42138836  0.29065041  0.92631772     0.13600
N400        N  0.43715247  0.24980224  0.65800819    -0.02700
C401        C  0.40062126  0.22930931  0.64944693    -0.00100
C402        C  0.40029933  0.23152183  0.60764781    -0.23000
C403        C  0.43879345  0.25140507  0.58904949    -0.23200
C404        C  0.46254979  0.26070432  0.61959178    -0.00200
H405        H  0.37674353  0.21613025  0.59161261     0.13600
H406        H  0.45108184  0.25207308  0.55558837     0.13600
N407        N  0.14059821  0.97447336  0.77252672    -0.02700
C408        C  0.13814737  0.93510812  0.79056401    -0.00100
C409        C  0.09661199  0.91808560  0.79878489    -0.23000
C410        C  0.07180650  0.94825332  0.78763553    -0.23200
C411        C  0.09835272  0.98380813  0.77319409    -0.00200
H412        H  0.08493798  0.88891972  0.81519516     0.13600
H413        H  0.03699180  0.94688799  0.79527483     0.13600
N414        N  0.28810031  0.02195941  0.64099103    -0.02700
C415        C  0.30760583  0.06229842  0.63684319    -0.00100
C416        C  0.31904196  0.07339762  0.59570231    -0.23000
C417        C  0.30878668  0.03835615  0.57290217    -0.23200
C418        C  0.29254694  0.00598740  0.60064597    -0.00200
H419        H  0.33425283  0.10351928  0.58355857     0.13600
H420        H  0.31849070  0.03477247  0.53921980     0.13600
N421        N  0.96453928  0.13332902  0.76250746    -0.02700
C422        C  0.96863241  0.15299253  0.72421331    -0.00100
C423        C  0.94058574  0.13029656  0.70295246    -0.23000
C424        C  0.91656842  0.10034860  0.72923966    -0.23200
C425        C  0.92997995  0.10423994  0.76663534    -0.00200
H426        H  0.93372456  0.13815473  0.67330877     0.13600
H427        H  0.88855081  0.08182026  0.72332642     0.13600
N428        N  0.00206363  0.33422342  0.66467390    -0.02700
C429        C  0.03153669  0.36605510  0.67354493    -0.00100
C430        C  0.04083505  0.39606275  0.64278255    -0.23000
C431        C  0.01623867  0.38510346  0.61437292    -0.23200
C432        C  0.99211549  0.34838716  0.62786546    -0.00200
H433        H  0.06115265  0.42514154  0.64281678     0.13600
H434        H  0.01319463  0.40433080  0.58845392     0.13600
O435        O  0.34374457  0.47897903  0.83889027    -0.73700
O436        O  0.31574129  0.35845889  0.84611519    -0.73700
O437        O  0.27254881  0.42892312  0.85487426    -0.73700
O438        O  0.39105540  0.40245574  0.82615230    -0.73800
O439        O  0.39282568  0.40563639  0.89365550    -0.73700
O440        O  0.27174231  0.42932459  0.92328918    -0.73700
O441        O  0.31756235  0.35971990  0.91404726    -0.73700
O442        O  0.34401670  0.48047469  0.90679340    -0.73700
Ni443      Ni  0.33158324  0.41753276  0.83896311     1.25400
Ni444      Ni  0.33261860  0.41947805  0.91180671     1.25400
C445        C  0.33841293  0.49933865  0.87438602     0.88500
C446        C  0.30864072  0.34048416  0.88169378     0.88500
C447        C  0.25225640  0.43141007  0.89290590     0.88500
C448        C  0.40880377  0.39222060  0.85578828     0.88600
O449        O  0.09374334  0.06085664  0.76325545    -0.73700
O450        O  0.07351662  0.16999335  0.81970068    -0.73700
O451        O  0.12600362  0.10751929  0.82120241    -0.73700
O452        O  0.03894358  0.12888065  0.76176241    -0.73800
O453        O  0.99166137  0.09659223  0.81250426    -0.73700
O454        O  0.07878959  0.07803286  0.87421216    -0.73700
O455        O  0.02388844  0.14010674  0.87079380    -0.73700
O456        O  0.04829252  0.03055653  0.81615675    -0.73700
Ni457      Ni  0.08463860  0.11755656  0.78940605     1.25400
Ni458      Ni  0.03356054  0.08479541  0.84486341     1.25400
C459        C  0.07912673  0.02723801  0.78382943     0.88500
C460        C  0.04518011  0.17290670  0.85368319     0.88500
C461        C  0.11715111  0.09057356  0.85715353     0.88500
C462        C  0.99990162  0.12008466  0.77991123     0.88600
O463        O  0.08718507  0.37294933  0.71292861    -0.73700
O464        O  0.12953283  0.40510949  0.81129230    -0.73700
O465        O  0.08843577  0.33729932  0.78654025    -0.73700
O466        O  0.13119521  0.44668214  0.73989197    -0.73800
O467        O  0.06742015  0.47237842  0.76749046    -0.73700
O468        O  0.02599834  0.36463173  0.81746834    -0.73700
O469        O  0.06768505  0.43426355  0.84100300    -0.73700
O470        O  0.02363315  0.39782618  0.74289888    -0.73700
Ni471      Ni  0.11120671  0.38970722  0.76113378     1.25400
Ni472      Ni  0.04384443  0.41852675  0.79274134     1.25400
C473        C  0.04738486  0.37707068  0.71272560     0.88500
C474        C  0.10527665  0.42296888  0.84267212     0.88500
C475        C  0.05234169  0.33473240  0.81268811     0.88500
C476        C  0.10678658  0.47862363  0.74796514     0.88600
O477        O  0.33914477  0.09250591  0.69293999    -0.73700
O478        O  0.33980674  0.17852840  0.78077831    -0.73700
O479        O  0.30087252  0.10177038  0.77556413    -0.73700
O480        O  0.38187479  0.17251393  0.69888089    -0.73800
O481        O  0.32863112  0.20303613  0.67849504    -0.73700
O482        O  0.24764015  0.13414346  0.75662178    -0.73700
O483        O  0.28798042  0.20971390  0.75854488    -0.73700
O484        O  0.28625109  0.12546536  0.67411158    -0.73700
Ni485      Ni  0.34285686  0.13505969  0.73711661     1.25400
Ni486      Ni  0.28593626  0.16887519  0.71591047     1.25400
C487        C  0.31090065  0.09430245  0.67027623     0.88500
C488        C  0.31088056  0.20622582  0.78558362     0.88500
C489        C  0.26119842  0.11001243  0.78148054     0.88500
C490        C  0.36886751  0.20083615  0.67767521     0.88600
N491        N  0.30711621  0.56375552  0.84971027    -0.02700
C492        C  0.26350359  0.56401799  0.85446566    -0.00100
C493        C  0.24450103  0.55458476  0.89543262    -0.23000
C494        C  0.27622279  0.53832994  0.91223386    -0.23200
C495        C  0.31352244  0.53930629  0.88121910    -0.00200
H496        H  0.21046284  0.55179240  0.90899910     0.13600
H497        H  0.27005799  0.51946405  0.94009775     0.13600
N498        N  0.16021878  0.54517338  0.72557502    -0.02700
C499        C  0.12088642  0.52238081  0.73043250    -0.00100
C500        C  0.09400219  0.54231538  0.71000030    -0.23000
C501        C  0.11663609  0.57716317  0.69088419    -0.23200
C502        C  0.15686435  0.57833391  0.70025768    -0.00200
H503        H  0.06207602  0.53083219  0.70679463     0.13600
H504        H  0.10613579  0.59733895  0.66923696     0.13600
C505        C  0.23935123  0.56362917  0.81891447    -0.04700
C506        C  0.25361486  0.53967585  0.78141855    -0.32100
C507        C  0.22783791  0.53272800  0.75093381     0.37100
C508        C  0.18712351  0.55031892  0.75682567    -0.05100
C509        C  0.17417705  0.57652229  0.79290743    -0.32000
C510        C  0.19915889  0.58238265  0.82396774     0.37000
H511        H  0.28413099  0.52465872  0.77650655     0.17400
O512        O  0.24275127  0.50859071  0.71552020    -0.59500
H513        H  0.14363704  0.59146112  0.79766843     0.17400
O514        O  0.18380482  0.60653080  0.85934997    -0.59600
H515        H  0.15996958  0.58859878  0.87590137     0.44400
H516        H  0.23159196  0.47884709  0.72238353     0.44400
C517        C  0.15362609  0.08453952  0.87646098    -0.04700
C518        C  0.17741968  0.12289055  0.87960460    -0.32100
C519        C  0.21500692  0.13071226  0.84957160     0.37100
C520        C  0.23139990  0.09780272  0.82079380    -0.05100
C521        C  0.21485468  0.05551649  0.82879367    -0.32000
C522        C  0.17663354  0.04895895  0.85926393     0.37000
H523        H  0.16174000  0.15009976  0.89660481     0.17400
O524        O  0.23214580  0.17173933  0.84528843    -0.59500
H525        H  0.22893529  0.02881840  0.80962188     0.17400
O526        O  0.15773373  0.00878268  0.86656204    -0.59600
H527        H  0.13384663  0.00629027  0.85136745     0.44400
H528        H  0.24064355  0.17946683  0.87222931     0.44400
C529        C  0.04300637  0.29785239  0.83948525    -0.04700
C530        C  0.00337942  0.27470817  0.84433810    -0.32100
C531        C  0.99944367  0.23322422  0.85955184     0.37100
C532        C  0.03547246  0.21579957  0.86982560    -0.05100
C533        C  0.07107243  0.24262272  0.87407528    -0.32000
C534        C  0.07569606  0.28332520  0.85759418     0.37000
H535        H  0.97741092  0.28660975  0.83208112     0.17400
O536        O  0.96398440  0.20735188  0.85596366    -0.59500
H537        H  0.09854580  0.22948324  0.88288101     0.17400
O538        O  0.11347478  0.30733090  0.85633496    -0.59600
H539        H  0.13472908  0.29438242  0.83325490     0.44400
H540        H  0.94474667  0.20855330  0.88401908     0.44400
C541        C  0.20596523  0.43765685  0.89953779    -0.04700
C542        C  0.19418909  0.47035968  0.87721323    -0.32100
C543        C  0.15308318  0.47168960  0.86992124     0.37100
C544        C  0.12532883  0.43550712  0.87780587    -0.05100
C545        C  0.13491058  0.40344610  0.90301908    -0.32000
C546        C  0.17493046  0.40505789  0.91506809     0.37000
H547        H  0.21867589  0.49085433  0.85924499     0.17400
O548        O  0.14460652  0.50265489  0.84480043    -0.59500
H549        H  0.11391311  0.37480880  0.90881021     0.17400
O550        O  0.18595990  0.37084498  0.93481546    -0.59600
H551        H  0.18620078  0.38148647  0.96372377     0.44400
H552        H  0.15641188  0.49226023  0.81585911     0.44400
C553        C  0.28821580  0.29757547  0.88401716    -0.04700
C554        C  0.31306138  0.26357179  0.88908297    -0.32100
C555        C  0.31932220  0.23078819  0.85820149     0.37100
C556        C  0.30040723  0.23362815  0.82329028    -0.05100
C557        C  0.26600613  0.26076933  0.82651423    -0.32000
C558        C  0.25792425  0.29094020  0.85886803     0.37000
H559        H  0.33205011  0.26562410  0.91296863     0.17400
O560        O  0.34514198  0.19802830  0.86138573    -0.59500
H561        H  0.24631479  0.26011540  0.80323318     0.17400
O562        O  0.22677993  0.31982329  0.85990657    -0.59600
H563        H  0.23645529  0.33744581  0.83476397     0.44400
H564        H  0.32533045  0.17482875  0.87537026     0.44400
C565        C  0.99576276  0.28952260  0.68104596    -0.04700
C566        C  0.00055996  0.25339436  0.65334303    -0.32100
C567        C  0.99576947  0.21009056  0.66721315     0.37100
C568        C  0.98497601  0.19984065  0.71052777    -0.05100
C569        C  0.98213299  0.23607748  0.73851375    -0.32000
C570        C  0.98752164  0.27973703  0.72442918     0.37000
H571        H  0.00854091  0.25865750  0.62004053     0.17400
O572        O  0.00267997  0.17751897  0.63749273    -0.59500
H573        H  0.97314208  0.23070152  0.77172087     0.17400
O574        O  0.98205782  0.31244584  0.75387754    -0.59600
H575        H  0.95240739  0.32149702  0.75569533     0.44400
H576        H  0.98051488  0.17964514  0.62054467     0.44400
C577        C  0.17898386  0.98802871  0.74117628    -0.04700
C578        C  0.20709903  0.95689466  0.72039549    -0.32100
C579        C  0.24443382  0.96759210  0.69017712     0.37100
C580        C  0.25248444  0.00976175  0.67561922    -0.05100
C581        C  0.22393772  0.04062704  0.69560492    -0.32000
C582        C  0.19011943  0.03098879  0.72991493     0.37000
H583        H  0.20091943  0.92347880  0.72802579     0.17400
O584        O  0.27468172  0.93764040  0.67836008    -0.59500
H585        H  0.22788170  0.07310190  0.68520579     0.17400
O586        O  0.17249459  0.06401214  0.75521961    -0.59600
H587        H  0.16905798  0.08755715  0.73688300     0.44400
H588        H  0.25910698  0.90962653  0.67506802     0.44400
C589        C  0.43841689  0.26901919  0.69966766    -0.04700
C590        C  0.43631328  0.24243584  0.73330336    -0.32100
C591        C  0.43178178  0.25833922  0.77494488     0.37100
C592        C  0.42965963  0.30348066  0.78553592    -0.05100
C593        C  0.43224125  0.33057060  0.75127547    -0.32000
C594        C  0.43592166  0.31380801  0.70921672     0.37000
H595        H  0.44030322  0.20848880  0.72711795     0.17400
O596        O  0.43615562  0.22928947  0.80392251    -0.59500
H597        H  0.43085738  0.36486484  0.75691491     0.17400
O598        O  0.43595898  0.34155655  0.67785941    -0.59600
H599        H  0.46664418  0.35038085  0.66737519     0.44400
H600        H  0.41349553  0.20625456  0.80335357     0.44400
C601        C  0.77762382  0.23580121  0.59664845    -0.04700
C602        C  0.76947858  0.20788118  0.56426885    -0.32100
C603        C  0.73079358  0.18315584  0.56990750     0.37100
C604        C  0.70023113  0.18907145  0.60700043    -0.05100
C605        C  0.71331315  0.20737995  0.64223762    -0.32000
C606        C  0.75182861  0.23171252  0.63710485     0.37000
H607        H  0.79107871  0.20789171  0.53387729     0.17400
O608        O  0.71963359  0.16053488  0.53663628    -0.59500
H609        H  0.69045109  0.20985269  0.67181265     0.17400
O610        O  0.76221493  0.25386587  0.67100391    -0.59600
H611        H  0.77999903  0.23448382  0.68264936     0.44400
H612        H  0.73713376  0.13490088  0.53267815     0.44400
C613        C  0.52992887  0.24451088  0.80632007    -0.04700
C614        C  0.52370561  0.27437078  0.77811846    -0.32100
C615        C  0.53059653  0.26459264  0.73613384     0.37100
C616        C  0.54273359  0.22327157  0.72103221    -0.05100
C617        C  0.54498479  0.19131255  0.74942813    -0.32000
C618        C  0.53916406  0.20211263  0.79250212     0.37000
H619        H  0.51708956  0.30726735  0.78834124     0.17400
O620        O  0.52699031  0.29655610  0.70955434    -0.59500
H621        H  0.55518161  0.15974346  0.73807374     0.17400
O622        O  0.54629379  0.17261746  0.81985133    -0.59600
H623        H  0.57780457  0.17456244  0.81812223     0.44400
H624        H  0.55120363  0.31777973  0.71074693     0.44400
C625        C  0.65892747  0.23654151  0.89253969    -0.04700
C626        C  0.70110030  0.25390349  0.88591886    -0.32100
C627        C  0.73517544  0.22744544  0.88363231     0.37100
C628        C  0.72738990  0.18252298  0.88421250    -0.05100
C629        C  0.68546764  0.16497689  0.88736673    -0.32000
C630        C  0.65108185  0.19160747  0.89316114     0.37000
H631        H  0.70769811  0.28806774  0.88248744     0.17400
O632        O  0.77623884  0.24563539  0.87754828    -0.59500
H633        H  0.67928462  0.13056650  0.88533708     0.17400
O634        O  0.61024379  0.17338481  0.89668423    -0.59600
H635        H  0.60159800  0.16396098  0.92598261     0.44400
H636        H  0.77891724  0.25903837  0.90493614     0.44400
C637        C  0.85384891  0.18725651  0.75210421    -0.04700
C638        C  0.84888602  0.16837209  0.71358401    -0.32100
C639        C  0.86512098  0.18976550  0.67699671     0.37100
C640        C  0.88540429  0.23036916  0.67948330    -0.05100
C641        C  0.88952510  0.24940528  0.71782997    -0.32000
C642        C  0.87353396  0.22841658  0.75421331     0.37000
H643        H  0.83354628  0.13666327  0.71159411     0.17400
O644        O  0.85932891  0.17187145  0.63942601    -0.59500
H645        H  0.90236012  0.28217345  0.71969588     0.17400
O646        O  0.87661998  0.24881431  0.79150744    -0.59600
H647        H  0.84966077  0.26415655  0.80034926     0.44400
H648        H  0.82961256  0.17811085  0.63770546     0.44400
C649        C  0.22567155  0.81288296  0.49354540    -0.04700
C650        C  0.24499513  0.77331016  0.48181880    -0.32100
C651        C  0.22207244  0.73283553  0.49125477     0.37100
C652        C  0.17857990  0.73046158  0.51323999    -0.05100
C653        C  0.15972378  0.76987883  0.52584366    -0.32000
C654        C  0.18241870  0.81013815  0.51627594     0.37000
H655        H  0.27725713  0.77367718  0.46298232     0.17400
O656        O  0.24150971  0.69589179  0.47573589    -0.59500
H657        H  0.12675457  0.76950595  0.54316494     0.17400
O658        O  0.16184450  0.84707608  0.52977126    -0.59600
H659        H  0.14079265  0.84954931  0.51168574     0.44400
H660        H  0.25033166  0.68340551  0.49976472     0.44400
C661        C  0.39911012  0.65815976  0.73574581    -0.04700
C662        C  0.39509215  0.68982806  0.70812186    -0.32100
C663        C  0.36513881  0.68320211  0.68278244     0.37100
C664        C  0.34450610  0.64220361  0.67967520    -0.05100
C665        C  0.35687587  0.60781170  0.69976111    -0.32000
C666        C  0.38419712  0.61566011  0.72811077     0.37000
H667        H  0.40686770  0.72247774  0.71336423     0.17400
O668        O  0.35342579  0.71794317  0.66413557    -0.59500
H669        H  0.34147487  0.57616047  0.69749598     0.17400
O670        O  0.38809319  0.58387662  0.75460455    -0.59600
H671        H  0.40684586  0.56296316  0.73710688     0.44400
H672        H  0.33417648  0.73381940  0.68676847     0.44400
C673        C  0.39180346  0.78021761  0.53038354    -0.04700
C674        C  0.40381852  0.75074269  0.55625500    -0.32100
C675        C  0.38253608  0.71027367  0.56040459     0.37100
C676        C  0.34761552  0.70144544  0.54077112    -0.05100
C677        C  0.34398068  0.72620328  0.50725205    -0.32000
C678        C  0.36808334  0.76504477  0.50046555     0.37000
H679        H  0.42374494  0.76130035  0.57817877     0.17400
O680        O  0.39067882  0.68304683  0.58922156    -0.59500
H681        H  0.31889774  0.71856226  0.49013032     0.17400
O682        O  0.35917752  0.79243758  0.47208065    -0.59600
H683        H  0.38197909  0.78845419  0.44665623     0.44400
H684        H  0.40221134  0.65733188  0.57288936     0.44400
C685        C  0.33055403  0.92441373  0.75190442    -0.04700
C686        C  0.35679230  0.88968010  0.73883628    -0.32100
C687        C  0.38585649  0.88971231  0.70047620     0.37100
C688        C  0.38536739  0.92277405  0.67293744    -0.05100
C689        C  0.36677616  0.96135973  0.68949898    -0.32000
C690        C  0.33901954  0.96233110  0.72919697     0.37000
H691        H  0.35137479  0.86023783  0.75598056     0.17400
O692        O  0.40701392  0.85316812  0.68635426    -0.59500
H693        H  0.36676475  0.98768096  0.66890455     0.17400
O694        O  0.31492787  0.99731912  0.74156071    -0.59600
H695        H  0.32976668  0.01385851  0.76134752     0.44400
H696        H  0.38485275  0.83205959  0.67936355     0.44400
C697        C  0.40081820  0.80316062  0.87403177    -0.04700
C698        C  0.37666204  0.81471149  0.91380030    -0.32100
C699        C  0.34257963  0.84190787  0.91647557     0.37100
C700        C  0.33611262  0.85950840  0.87977810    -0.05100
C701        C  0.36987015  0.85983509  0.84456976    -0.32000
C702        C  0.40333573  0.83217157  0.84185982     0.37000
H703        H  0.37705344  0.79527231  0.94040325     0.17400
O704        O  0.31370074  0.84727953  0.95345329    -0.59500
H705        H  0.36770769  0.87768022  0.81769390     0.17400
O706        O  0.43167886  0.82641793  0.80440416    -0.59600
H707        H  0.41533052  0.80926311  0.78618955     0.44400
H708        H  0.32171641  0.87584780  0.96472319     0.44400
C709        C  0.51535176  0.87196454  0.20525593    -0.04700
C710        C  0.51528117  0.86823197  0.16172980    -0.32100
C711        C  0.51480409  0.82807554  0.13905921     0.37100
C712        C  0.51398616  0.78824993  0.15883033    -0.05100
C713        C  0.51639933  0.79207807  0.20197996    -0.32000
C714        C  0.51759211  0.83253832  0.22441343     0.37000
H715        H  0.51539661  0.89700085  0.14440985     0.17400
O716        O  0.51680206  0.82864030  0.09685092    -0.59500
H717        H  0.51639138  0.76352414  0.21937618     0.17400
O718        O  0.52040033  0.83276122  0.26552387    -0.59600
H719        H  0.49064722  0.83582952  0.28154340     0.44400
H720        H  0.48779517  0.83605363  0.09390607     0.44400
C721        C  0.26868501  0.77362125  0.08278623    -0.04700
C722        C  0.23754314  0.74419042  0.10376960    -0.32100
C723        C  0.19479459  0.74848171  0.10444142     0.37100
C724        C  0.18232737  0.78318280  0.08468414    -0.05100
C725        C  0.21230874  0.81605279  0.06882074    -0.32000
C726        C  0.25595562  0.81112230  0.06714616     0.37000
H727        H  0.24613124  0.71610318  0.11792289     0.17400
O728        O  0.16536922  0.71770400  0.12352426    -0.59500
H729        H  0.20213271  0.84431143  0.05637713     0.17400
O730        O  0.28557774  0.84226926  0.04939975    -0.59600
H731        H  0.29078638  0.86119309  0.07310110     0.44400
H732        H  0.16001036  0.72564671  0.15375478     0.44400
C733        C  0.07685035  0.74621873  0.20945702    -0.04700
C734        C  0.08964565  0.78015798  0.23423155    -0.32100
C735        C  0.09992302  0.77180200  0.27173687     0.37100
C736        C  0.09718489  0.72940000  0.28423209    -0.05100
C737        C  0.08586783  0.69529957  0.25922515    -0.32000
C738        C  0.07571632  0.70341882  0.22161761     0.37000
H739        H  0.09181589  0.81316615  0.22464160     0.17400
O740        O  0.11188061  0.80502877  0.29626576    -0.59500
H741        H  0.08287667  0.66255631  0.26976939     0.17400
O742        O  0.06285424  0.66965924  0.19816540    -0.59600
H743        H  0.08981750  0.65723998  0.18275125     0.44400
H744        H  0.14347272  0.80916411  0.28650556     0.44400
C745        C  0.40475804  0.82239200  0.16240909    -0.04700
C746        C  0.41467700  0.80076499  0.19536395    -0.32100
C747        C  0.41513588  0.82172332  0.23263348     0.37100
C748        C  0.40752414  0.86559527  0.23641613    -0.05100
C749        C  0.40065283  0.88813787  0.20229975    -0.32000
C750        C  0.39959883  0.86652253  0.16478029     0.37000
H751        H  0.41983533  0.76663150  0.19303961     0.17400
O752        O  0.42014950  0.79823246  0.26570519    -0.59500
H753        H  0.39402051  0.92188424  0.20535340     0.17400
O754        O  0.38942614  0.88757612  0.13249042    -0.59600
H755        H  0.41719946  0.90025739  0.11691180     0.44400
H756        H  0.39079526  0.78700248  0.27875277     0.44400
C757        C  0.20187542  0.77544582  0.38557926    -0.04700
C758        C  0.24264637  0.75906288  0.38054065    -0.32100
C759        C  0.27939717  0.78546498  0.36802256     0.37100
C760        C  0.27542929  0.82876679  0.35961639    -0.05100
C761        C  0.23469227  0.84405064  0.36116912    -0.32000
C762        C  0.19789866  0.81804538  0.37500713     0.37000
H763        H  0.24611563  0.72582040  0.38691485     0.17400
O764        O  0.31891458  0.76844391  0.36349994    -0.59500
H765        H  0.23102218  0.87711131  0.35433310     0.17400
O766        O  0.15829892  0.83493385  0.37931873    -0.59600
H767        H  0.15606378  0.84282299  0.35087381     0.44400
H768        H  0.32395484  0.76686571  0.39227613     0.44400
C769        C  0.16376393  0.78204755  0.96916512    -0.04700
C770        C  0.15464234  0.73770095  0.97548812    -0.32100
C771        C  0.18660098  0.70966502  0.98081054     0.37100
C772        C  0.22989885  0.72473053  0.97906727    -0.05100
C773        C  0.23933679  0.76860839  0.97170947    -0.32000
C774        C  0.20732330  0.79707245  0.96747349     0.37000
H775        H  0.12236433  0.72441533  0.97619210     0.17400
O776        O  0.17476811  0.66730709  0.98824412    -0.59500
H777        H  0.27152003  0.78128071  0.97190377     0.17400
O778        O  0.21934985  0.83982075  0.96327960    -0.59600
H779        H  0.20157079  0.85493065  0.98744614     0.44400
H780        H  0.17968203  0.65279572  0.96024282     0.44400
C781        C  0.96903044  0.65827447  0.30830080    -0.04700
C782        C  0.96657263  0.63208593  0.27248873    -0.32100
C783        C  0.96306443  0.64887138  0.23358780     0.37100
C784        C  0.96066332  0.69359096  0.22812050    -0.05100
C785        C  0.96635066  0.72034305  0.26295272    -0.32000
C786        C  0.97113714  0.70325718  0.30206741     0.37000
H787        H  0.96544429  0.59757142  0.27520095     0.17400
O788        O  0.95898813  0.62042170  0.20143952    -0.59500
H789        H  0.96509154  0.75464592  0.26054548     0.17400
O790        O  0.97575771  0.73088526  0.33457126    -0.59600
H791        H  0.00435839  0.74586405  0.32561027     0.44400
H792        H  0.98878195  0.61663589  0.18564967     0.44400
C793        C  0.63892768  0.50508628  0.21044117    -0.04700
C794        C  0.67986121  0.52496792  0.21131655    -0.32100
C795        C  0.70362088  0.51485521  0.24195166     0.37100
C796        C  0.68708606  0.48402375  0.27285104    -0.05100
C797        C  0.64700712  0.46309319  0.27043383    -0.32000
C798        C  0.62349277  0.47307465  0.24001573     0.37000
H799        H  0.69314297  0.54912187  0.18868836     0.17400
O800        O  0.74202235  0.53690855  0.24249016    -0.59500
H801        H  0.63274091  0.43976356  0.29362441     0.17400
O802        O  0.58387577  0.45292649  0.24104541    -0.59600
H803        H  0.58980140  0.42374552  0.22891417     0.44400
H804        H  0.73427753  0.56409485  0.25825033     0.44400
C805        C  0.60259765  0.62311985  0.34387352    -0.04700
C806        C  0.61078351  0.65759105  0.37078410    -0.32100
C807        C  0.65025254  0.66201949  0.38372248     0.37100
C808        C  0.68077294  0.63115612  0.37006338    -0.05100
C809        C  0.66984548  0.59488443  0.34727718    -0.32000
C810        C  0.62960776  0.58890815  0.33743758     0.37000
H811        H  0.58984584  0.68424008  0.37611959     0.17400
O812        O  0.66052040  0.69870738  0.40479734    -0.59500
H813        H  0.69421547  0.57334809  0.33310431     0.17400
O814        O  0.62109579  0.55406978  0.31300757    -0.59600
H815        H  0.63289061  0.56249760  0.28380626     0.44400
H816        H  0.67747272  0.71766962  0.38301963     0.44400
C817        C  0.56170594  0.76231218  0.32162847    -0.04700
C818        C  0.52473322  0.78414537  0.33954435    -0.32100
C819        C  0.52824902  0.82031021  0.36580283     0.37100
C820        C  0.56881014  0.83363129  0.37389550    -0.05100
C821        C  0.60055793  0.80352091  0.36758278    -0.32000
C822        C  0.59886087  0.76994953  0.33846813     0.37000
H823        H  0.49464657  0.77616733  0.32987744     0.17400
O824        O  0.49423829  0.84627276  0.37721723    -0.59500
H825        H  0.63111956  0.81194489  0.37621204     0.17400
O826        O  0.63441707  0.74629782  0.32511238    -0.59600
H827        H  0.65473788  0.76456895  0.30502331     0.44400
H828        H  0.49532439  0.86431942  0.35277422     0.44400
C829        C  0.84728310  0.80821079  0.32957720    -0.04700
C830        C  0.80589293  0.80058429  0.35420212    -0.32100
C831        C  0.79914950  0.77153208  0.38615040     0.37100
C832        C  0.83312509  0.74644467  0.38929517    -0.05100
C833        C  0.87541216  0.76109419  0.37231715    -0.32000
C834        C  0.88280557  0.79235850  0.34191307     0.37000
H835        H  0.77798500  0.81289955  0.34563486     0.17400
O836        O  0.75777670  0.75925794  0.40510952    -0.59500
H837        H  0.90184093  0.74285651  0.37667898     0.17400
O838        O  0.92377167  0.80154076  0.32003962    -0.59600
H839        H  0.93384346  0.82779198  0.33396674     0.44400
H840        H  0.74922930  0.78123623  0.42758385     0.44400
C841        C  0.79092232  0.94014987  0.31316671    -0.04700
C842        C  0.77300236  0.91530254  0.34785692    -0.32100
C843        C  0.73630219  0.92829152  0.37609007     0.37100
C844        C  0.71668550  0.96486686  0.36721445    -0.05100
C845        C  0.74267774  0.99565401  0.34178217    -0.32000
C846        C  0.77931443  0.98256570  0.31326293     0.37000
H847        H  0.78419568  0.88386411  0.35018402     0.17400
O848        O  0.71456642  0.90040791  0.40559768    -0.59500
H849        H  0.72950431  0.02572957  0.33667723     0.17400
O850        O  0.79928097  0.00895986  0.28212112    -0.59600
H851        H  0.83032815  0.00934577  0.28272501     0.44400
H852        H  0.69951567  0.87856914  0.39016613     0.44400
C853        C  0.77999759  0.35831189  0.49298659    -0.04700
C854        C  0.77758814  0.31300885  0.49373297    -0.32100
C855        C  0.73919418  0.28858896  0.48974973     0.37100
C856        C  0.70182544  0.30892506  0.48541550    -0.05100
C857        C  0.70321901  0.35404504  0.48919486    -0.32000
C858        C  0.74096959  0.37826989  0.49359633     0.37000
H859        H  0.80586852  0.29634618  0.49545952     0.17400
O860        O  0.73972238  0.24480845  0.48681391    -0.59500
H861        H  0.67509478  0.37104524  0.48722530     0.17400
O862        O  0.74006065  0.42216582  0.49550738    -0.59600
H863        H  0.74085979  0.43059194  0.52489108     0.44400
H864        H  0.71722053  0.23471830  0.51063498     0.44400
C865        C  0.85989777  0.11526803  0.17669819    -0.04700
C866        C  0.84972430  0.15802508  0.18484511    -0.32100
C867        C  0.82259006  0.16933697  0.22240267     0.37100
C868        C  0.80835347  0.13798189  0.25312133    -0.05100
C869        C  0.83052193  0.10034626  0.24948339    -0.32000
C870        C  0.85669497  0.08879585  0.21094596     0.37000
H871        H  0.85506124  0.18036982  0.15951131     0.17400
O872        O  0.80807031  0.21014406  0.22763888    -0.59500
H873        H  0.82678440  0.08041934  0.27607569     0.17400
O874        O  0.87900585  0.05221457  0.20676467    -0.59600
H875        H  0.90629711  0.06076259  0.21561107     0.44400
H876        H  0.83385959  0.22966668  0.22723429     0.44400
C877        C  0.75052206  0.29313111  0.09300668    -0.04700
C878        C  0.74230869  0.26723255  0.12783594    -0.32100
C879        C  0.76829850  0.23425675  0.13061516     0.37100
C880        C  0.80010477  0.22346830  0.09546339    -0.05100
C881        C  0.81261085  0.25254437  0.06297873    -0.32000
C882        C  0.78857623  0.28860755  0.06245772     0.37000
H883        H  0.71434972  0.27107322  0.15266062     0.17400
O884        O  0.75745999  0.20791906  0.16439047    -0.59500
H885        H  0.83802387  0.24531521  0.03635870     0.17400
O886        O  0.80028353  0.31660678  0.03035064    -0.59600
H887        H  0.81976751  0.33873396  0.04026202     0.44400
H888        H  0.75113711  0.22693846  0.18973109     0.44400
C889        C  0.81951748  0.22653183  0.37264781    -0.04700
C890        C  0.82988465  0.24631673  0.40869995    -0.32100
C891        C  0.86400162  0.27786574  0.40419715     0.37100
C892        C  0.88107022  0.29331673  0.36393409    -0.05100
C893        C  0.88288840  0.26300909  0.33116922    -0.32000
C894        C  0.85013339  0.23060732  0.33476871     0.37000
H895        H  0.81021736  0.23998787  0.43909054     0.17400
O896        O  0.87143911  0.30144422  0.43834365    -0.59500
H897        H  0.90139902  0.27051736  0.30030135     0.17400
O898        O  0.84591243  0.20606811  0.30032354    -0.59600
H899        H  0.86570980  0.18256073  0.29949489     0.44400
H900        H  0.88876953  0.28318532  0.45174175     0.44400
C901        C  0.73901983  0.39173262  0.18975424    -0.04700
C902        C  0.77606731  0.41871113  0.18767898    -0.32100
C903        C  0.80882509  0.40718142  0.20662196     0.37100
C904        C  0.80465890  0.36780418  0.22721111    -0.05100
C905        C  0.77140368  0.33799196  0.22252895    -0.32000
C906        C  0.73689205  0.35103439  0.20751762     0.37000
H907        H  0.77892005  0.44935145  0.17265433     0.17400
O908        O  0.84142491  0.43703532  0.20986742    -0.59500
H909        H  0.76814708  0.30737199  0.23772047     0.17400
O910        O  0.70094402  0.32384352  0.21115093    -0.59600
H911        H  0.68333629  0.33044577  0.23925323     0.44400
H912        H  0.86478109  0.43095769  0.18543704     0.44400
C913        C  0.77224600  0.97114779  0.14862985    -0.04700
C914        C  0.73029955  0.97097315  0.14090975    -0.32100
C915        C  0.69817886  0.99531406  0.16648397     0.37100
C916        C  0.70725100  0.02009310  0.20093040    -0.05100
C917        C  0.74836366  0.01842191  0.20978558    -0.32000
C918        C  0.78036442  0.99421110  0.18411750     0.37000
H919        H  0.72329137  0.95403372  0.11339319     0.17400
O920        O  0.65869953  0.99642864  0.15625489    -0.59500
H921        H  0.75648351  0.03851644  0.23498856     0.17400
O922        O  0.82100180  0.99669337  0.19136289    -0.59600
H923        H  0.82167154  0.97287750  0.21008350     0.44400
H924        H  0.64149791  0.97170748  0.17044631     0.44400
C925        C  0.70711138  0.17480584  0.99563411    -0.04700
C926        C  0.66343342  0.18568949  0.00459387    -0.32100
C927        C  0.65114546  0.22903240  0.00752100     0.37100
C928        C  0.68251825  0.26336372  0.00085573    -0.05100
C929        C  0.72590934  0.25248020  0.99438599    -0.32000
C930        C  0.73821100  0.20940321  0.99263748     0.37000
H931        H  0.63833854  0.16035498  0.00786670     0.17400
O932        O  0.60834751  0.23732100  0.01496267    -0.59500
H933        H  0.75095026  0.27770296  0.98861536     0.17400
O934        O  0.78104935  0.20160179  0.98640908    -0.59600
H935        H  0.79412461  0.21135882  0.95791258     0.44400
H936        H  0.59747943  0.22435376  0.99079423     0.44400
loop_ 
_geom_bond_atom_site_label_1 
_geom_bond_atom_site_label_2 
_geom_bond_distance 
_geom_bond_site_symmetry_2 
_ccdc_geom_bond_type 
N1            C5   1.359       .  A
N1            C2   1.372       .  A
N1           C67   1.433   1_556  S
C2            C3   1.385       .  A
C2          C925   1.534       .  S
C3            C4   1.382       .  A
C3            H6   1.081       .  S
C4            C5   1.386       .  A
C4            H7   1.082       .  S
C5          C350   1.503       .  S
N8           C12   1.379   1_554  A
N8            C9   1.365   1_554  A
N8           C56   1.449       .  S
C9           C10   1.391       .  A
C9          C364   1.491       .  S
C10          C11   1.371       .  A
C10          H13   1.083       .  S
C11          C12   1.381       .  A
C11          H14   1.081       .  S
C12         C928   1.529   1_556  S
N15          C19   1.369       .  A
N15          C16   1.368       .  A
N15         C913   1.463       .  S
C16          C17   1.379       .  A
C16         C112   1.474       .  S
C17          C18   1.370       .  A
C17          H20   1.082       .  S
C18          C19   1.381       .  A
C18          H21   1.082       .  S
C19          C70   1.472   1_565  S
N22          C26   1.368       .  A
N22          C23   1.376       .  A
N22         C126   1.451       .  S
C23          C24   1.396       .  A
C23          C84   1.522       .  S
C24          C25   1.376       .  A
C24          H27   1.083       .  S
C25          C26   1.373       .  A
C25          H28   1.082       .  S
C26         C916   1.508       .  S
O29         Ni37   1.943       .  S
O29          C39   1.289       .  A
O30         Ni37   1.934       .  S
O30          C40   1.282       .  A
O31         Ni37   1.892       .  S
O31          C41   1.275       .  A
O32         Ni37   1.912       .  S
O32          C42   1.284       .  A
O33         Ni38   1.915       .  S
O33          C42   1.279       .  A
O34         Ni38   1.879       .  S
O34          C41   1.279       .  A
O35         Ni38   1.878       .  S
O35          C40   1.278       .  A
O36         Ni38   1.918       .  S
O36          C39   1.284       .  A
Ni37        Ni38   2.389       .  S
C39         N155   1.451       .  S
C40         C892   1.466       .  S
C41         C904   1.452       .  S
C42          C89   1.487       .  S
O43         Ni51   1.915       .  S
O43          C53   1.281       .  A
O44         Ni51   1.890       .  S
O44          C54   1.282       .  A
O45         Ni51   1.890       .  S
O45          C55   1.277       .  A
O46         Ni51   1.923       .  S
O46          C56   1.278       .  A
O47         Ni52   1.915       .  S
O47          C56   1.290       .  A
O48         Ni52   1.891       .  S
O48          C55   1.277       .  A
O49         Ni52   1.900       .  S
O49          C54   1.275       .  A
O50         Ni52   1.906       .  S
O50          C53   1.278       .  A
Ni51        Ni52   2.394       .  S
C53         C163   1.462       .  S
C54         C877   1.459       .  S
C55         C901   1.454       .  S
O57         Ni65   1.911       .  S
O57          C67   1.282       .  A
O58         Ni65   1.910       .  S
O58          C68   1.282       .  A
O59         Ni65   1.859       .  S
O59          C69   1.273       .  A
O60         Ni65   1.880       .  S
O60          C70   1.269       .  A
O61         Ni66   1.932       .  S
O61          C70   1.288       .  A
O62         Ni66   1.923       .  S
O62          C69   1.281       .  A
O63         Ni66   1.915       .  S
O63          C68   1.277       .  A
O64         Ni66   1.919       .  S
O64          C67   1.281       .  A
Ni65        Ni66   2.389       .  S
C68         C865   1.460       .  S
C69         C880   1.458       .  S
O71         Ni79   1.999       .  S
O71          C81   1.298       .  A
O72         Ni79   1.952       .  S
O72          C82   1.290       .  A
O73         Ni79   1.924       .  S
O73          C83   1.279       .  A
O74         Ni79   1.965       .  S
O74          C84   1.288       .  A
O75         Ni80   1.924       .  S
O75          C84   1.287       .  A
O76         Ni80   1.922       .  S
O76          C83   1.285       .  A
O77         Ni80   1.866       .  S
O77          C82   1.269       .  A
O78         Ni80   1.887       .  S
O78          C81   1.277       .  A
Ni79        Ni80   2.378       .  S
C81          C93   1.532       .  S
C82         C868   1.479       .  S
C83         C889   1.479       .  S
N85          C89   1.376       .  A
N85          C86   1.387       .  A
N85         C853   1.478       .  S
C86          C87   1.376       .  A
C86         C375   1.485       .  S
C87          C88   1.362       .  A
C87          H90   1.083       .  S
C88          C89   1.383       .  A
C88          H91   1.083       .  S
N92          C96   1.376       .  A
N92          C93   1.373       .  A
N92         C389   1.472       .  S
C93          C94   1.399       .  A
C94          C95   1.377       .  A
C94          H97   1.083       .  S
C95          C96   1.378       .  A
C95          H98   1.082       .  S
C96         C856   1.531       .  S
O99        Ni107   1.940       .  S
O99         C109   1.283       .  A
O100       Ni107   1.927       .  S
O100        C110   1.282       .  A
O101       Ni107   1.912       .  S
O101        C111   1.280       .  A
O102       Ni107   1.936       .  S
O102        C112   1.288       .  A
O103       Ni108   1.911       .  S
O103        C112   1.274       .  A
O104       Ni108   1.886       .  S
O104        C111   1.277       .  A
O105       Ni108   1.902       .  S
O105        C110   1.280       .  A
O106       Ni108   1.925       .  S
O106        C109   1.286       .  A
Ni107      Ni108   2.390       .  S
C109        C173   1.499       .  S
C110        C841   1.470       .  S
C111        C829   1.458       .  S
O113       Ni121   1.930       .  S
O113        C123   1.280       .  A
O114       Ni121   1.893       .  S
O114        C124   1.279       .  A
O115       Ni121   1.877       .  S
O115        C125   1.277       .  A
O116       Ni121   1.903       .  S
O116        C126   1.282   1_565  A
O117       Ni122   1.951   1_545  S
O117        C126   1.287       .  A
O118       Ni122   1.932       .  S
O118        C125   1.282       .  A
O119       Ni122   1.925       .  S
O119        C124   1.279       .  A
O120       Ni122   1.940       .  S
O120        C123   1.292       .  A
Ni121      Ni122   2.387       .  S
C123        N253   1.456       .  S
C124        C844   1.461       .  S
C125        C820   1.462       .  S
O127       Ni135   1.911       .  S
O127        C137   1.278       .  A
O128       Ni135   1.901       .  S
O128        C138   1.273       .  A
O129       Ni135   1.925       .  S
O129        C139   1.282       .  A
O130       Ni135   1.930       .  S
O130        C140   1.290       .  A
O131       Ni136   1.919       .  S
O131        C140   1.276       .  A
O132       Ni136   1.904       .  S
O132        C139   1.279       .  A
O133       Ni136   1.896       .  S
O133        C138   1.282       .  A
O134       Ni136   1.927       .  S
O134        C137   1.284       .  A
Ni135      Ni136   2.394       .  S
C137        C156   1.479       .  S
C138        C832   1.446       .  S
C139        C808   1.463       .  S
C140        C180   1.484       .  S
O141       Ni149   1.949       .  S
O141        C151   1.287       .  A
O142       Ni149   1.922       .  S
O142        C152   1.279       .  A
O143       Ni149   1.909       .  S
O143        C153   1.278       .  A
O144       Ni149   1.931       .  S
O144        C154   1.287       .  A
O145       Ni150   1.932       .  S
O145        C154   1.280       .  A
O146       Ni150   1.904       .  S
O146        C153   1.282       .  A
O147       Ni150   1.881       .  S
O147        C152   1.277       .  A
O148       Ni150   1.923       .  S
O148        C151   1.281       .  A
Ni149      Ni150   2.391       .  S
C151        C264   1.490       .  S
C152        C805   1.452       .  S
C153        C817   1.471       .  S
C154        C166   1.480       .  S
N155        C159   1.383       .  A
N155        C156   1.349       .  A
C156        C157   1.381       .  A
C157        C158   1.376       .  A
C157        H160   1.083       .  S
C158        C159   1.391       .  A
C158        H161   1.082       .  S
C159        C796   1.539       .  S
N162        C166   1.380       .  A
N162        C163   1.376       .  A
N162        C793   1.478       .  S
C163        C164   1.374       .  A
C164        C165   1.360       .  A
C164        H167   1.083       .  S
C165        C166   1.381       .  A
C165        H168   1.083       .  S
N169        C173   1.368       .  A
N169        C170   1.397       .  A
N169        C235   1.474       .  S
C170        C171   1.385       .  A
C170        C784   1.560       .  S
C171        C172   1.367       .  A
C171        H174   1.083       .  S
C172        C173   1.382       .  A
C172        H175   1.083       .  S
N176        C180   1.384       .  A
N176        C177   1.400       .  A
N176        C781   1.497       .  S
C177        C178   1.378       .  A
C177        C221   1.503   1_655  S
C178        C179   1.353       .  A
C178        H181   1.083       .  S
C179        C180   1.376       .  A
C179        H182   1.083       .  S
N183        C187   1.398       .  A
N183        C184   1.384       .  A
N183        C769   1.486       .  S
C184        C185   1.376       .  A
C184        C280   1.494       .  S
C185        C186   1.364       .  A
C185        H188   1.083       .  S
C186        C187   1.381       .  A
C186        H189   1.083       .  S
C187        C238   1.504   1_556  S
N190        C194   1.373   1_556  A
N190        C191   1.381       .  A
N190        C308   1.443       .  S
C191        C192   1.380   1_556  A
C191        C772   1.535       .  S
C192        C193   1.378       .  A
C192        H195   1.082       .  S
C193        C194   1.388       .  A
C193        H196   1.082       .  S
C194        C249   1.528       .  S
O197       Ni205   1.920       .  S
O197        C207   1.283       .  A
O198       Ni205   1.868       .  S
O198        C208   1.273       .  A
O199       Ni205   1.906       .  S
O199        C209   1.283       .  A
O200       Ni205   1.936       .  S
O200        C210   1.288       .  A
O201       Ni206   1.931       .  S
O201        C210   1.283       .  A
O202       Ni206   1.889       .  S
O202        C209   1.277       .  A
O203       Ni206   1.871       .  S
O203        C208   1.276       .  A
O204       Ni206   1.930       .  S
O204        C207   1.286       .  A
Ni205      Ni206   2.402       .  S
C207        C327   1.521       .  S
C208        C748   1.428       .  S
C209        C760   1.460       .  S
C210        C257   1.528       .  S
O211       Ni219   1.951       .  S
O211        C221   1.288       .  A
O212       Ni219   1.894       .  S
O212        C222   1.278       .  A
O213       Ni219   1.871       .  S
O213        C223   1.274       .  A
O214       Ni219   1.936       .  S
O214        C224   1.285       .  A
O215       Ni220   1.905       .  S
O215        C224   1.280       .  A
O216       Ni220   1.861       .  S
O216        C223   1.271       .  A
O217       Ni220   1.890       .  S
O217        C222   1.277       .  A
O218       Ni220   1.930       .  S
O218        C221   1.288       .  A
Ni219      Ni220   2.396       .  S
C222        C757   1.454       .  S
C223        C736   1.411       .  S
C224        C334   1.480       .  S
O225       Ni233   1.941   1_655  S
O225        C235   1.291       .  A
O226       Ni233   1.876       .  S
O226        C236   1.276       .  A
O227       Ni233   1.868       .  S
O227        C237   1.273       .  A
O228       Ni233   1.930       .  S
O228        C238   1.283       .  A
O229       Ni234   1.918       .  S
O229        C238   1.287       .  A
O230       Ni234   1.866       .  S
O230        C237   1.274       .  A
O231       Ni234   1.904       .  S
O231        C236   1.277       .  A
O232       Ni234   1.944   1_655  S
O232        C235   1.289       .  A
Ni233      Ni234   2.396       .  S
C236        C724   1.441       .  S
C237        C733   1.430       .  S
O239       Ni247   1.918       .  S
O239        C249   1.283       .  A
O240       Ni247   1.843       .  S
O240        C250   1.272       .  A
O241       Ni247   1.879       .  S
O241        C251   1.278       .  A
O242       Ni247   1.923       .  S
O242        C252   1.283       .  A
O243       Ni248   1.960       .  S
O243        C252   1.296       .  A
O244       Ni248   1.904       .  S
O244        C251   1.278       .  A
O245       Ni248   1.885       .  S
O245        C250   1.274       .  A
O246       Ni248   1.960       .  S
O246        C249   1.290       .  A
Ni247      Ni248   2.393       .  S
C250        C745   1.418       .  S
C251        C721   1.456       .  S
C252        C261   1.518       .  S
N253        C257   1.376       .  A
N253        C254   1.392       .  A
C254        C255   1.390       .  A
C254        C709   1.567       .  S
C255        C256   1.379       .  A
C255        H258   1.081       .  S
C256        C257   1.381       .  A
C256        H259   1.082       .  S
N260        C264   1.378       .  A
N260        C261   1.405       .  A
N260        C712   1.505       .  S
C261        C262   1.380       .  A
C262        C263   1.362       .  A
C262        H265   1.083       .  S
C263        C264   1.376       .  A
C263        H266   1.083       .  S
O267       Ni275   1.914       .  S
O267        C277   1.274       .  A
O268       Ni275   1.909       .  S
O268        C278   1.274       .  A
O269       Ni275   1.940       .  S
O269        C279   1.285       .  A
O270       Ni275   1.958       .  S
O270        C280   1.293       .  A
O271       Ni276   1.920       .  S
O271        C280   1.275       .  A
O272       Ni276   1.900       .  S
O272        C279   1.279       .  A
O273       Ni276   1.925       .  S
O273        C278   1.287       .  A
O274       Ni276   1.954       .  S
O274        C277   1.288       .  A
Ni275      Ni276   2.383       .  S
C277        C408   1.499       .  S
C278        C700   1.468       .  S
C279        C685   1.479       .  S
O281       Ni289   1.932       .  S
O281        C291   1.279       .  A
O282       Ni289   1.903       .  S
O282        C292   1.282       .  A
O283       Ni289   1.885       .  S
O283        C293   1.276       .  A
O284       Ni289   1.892       .  S
O284        C294   1.273       .  A
O285       Ni290   1.921       .  S
O285        C294   1.287       .  A
O286       Ni290   1.932       .  S
O286        C293   1.282       .  A
O287       Ni290   1.909       .  S
O287        C292   1.275       .  A
O288       Ni290   1.901       .  S
O288        C291   1.281       .  A
Ni289      Ni290   2.390       .  S
C291        C418   1.482   1_565  S
C292        C673   1.456       .  S
C293        C688   1.465       .  S
C294        N323   1.431       .  S
O295       Ni303   1.906       .  S
O295        C305   1.284       .  A
O296       Ni303   1.884       .  S
O296        C306   1.278       .  A
O297       Ni303   1.877       .  S
O297        C307   1.276       .  A
O298       Ni303   1.912       .  S
O298        C308   1.279       .  A
O299       Ni304   1.935       .  S
O299        C308   1.288       .  A
O300       Ni304   1.926       .  S
O300        C307   1.281       .  A
O301       Ni304   1.928       .  S
O301        C306   1.280       .  A
O302       Ni304   1.931       .  S
O302        C305   1.286       .  A
Ni303      Ni304   2.390       .  S
C305        N491   1.451       .  S
C306        C697   1.461       .  S
C307        C661   1.458       .  S
O309       Ni317   1.912       .  S
O309        C319   1.273       .  A
O310       Ni317   1.890       .  S
O310        C320   1.276       .  A
O311       Ni317   1.920       .  S
O311        C321   1.285       .  A
O312       Ni317   1.949       .  S
O312        C322   1.289       .  A
O313       Ni318   1.925       .  S
O313        C322   1.279       .  A
O314       Ni318   1.908       .  S
O314        C321   1.274       .  A
O315       Ni318   1.932       .  S
O315        C320   1.284       .  A
O316       Ni318   1.948       .  S
O316        C319   1.292       .  A
Ni317      Ni318   2.389       .  S
C319        C331   1.480       .  S
C320        C664   1.470       .  S
C321        C676   1.461       .  S
C322        C502   1.488       .  S
N323        C327   1.368       .  A
N323        C324   1.382       .  A
C324        C325   1.384       .  A
C324        C649   1.543       .  S
C325        C326   1.382       .  A
C325        H328   1.081       .  S
C326        C327   1.384       .  A
C326        H329   1.082       .  S
N330        C334   1.386       .  A
N330        C331   1.379       .  A
N330        C652   1.482       .  S
C331        C332   1.376       .  A
C332        C333   1.362       .  A
C332        H335   1.083       .  S
C333        C334   1.379       .  A
C333        H336   1.083       .  S
O337       Ni345   1.938       .  S
O337        C347   1.289       .  A
O338       Ni345   1.909       .  S
O338        C348   1.282       .  A
O339       Ni345   1.870       .  S
O339        C349   1.274       .  A
O340       Ni345   1.918       .  S
O340        C350   1.282       .  A
O341       Ni346   1.923       .  S
O341        C350   1.283       .  A
O342       Ni346   1.874       .  S
O342        C349   1.277       .  A
O343       Ni346   1.893       .  S
O343        C348   1.277       .  A
O344       Ni346   1.930       .  S
O344        C347   1.284       .  A
Ni345      Ni346   2.401       .  S
C347        C425   1.526       .  S
C348        C628   1.460       .  S
C349        C637   1.434       .  S
O351       Ni359   1.958       .  S
O351        C361   1.285       .  A
O352       Ni359   1.924       .  S
O352        C362   1.285       .  A
O353       Ni359   1.857       .  S
O353        C363   1.274       .  A
O354       Ni359   1.905       .  S
O354        C364   1.280       .  A
O355       Ni360   1.935       .  S
O355        C364   1.284       .  A
O356       Ni360   1.933       .  S
O356        C363   1.282       .  A
O357       Ni360   1.881       .  S
O357        C362   1.274       .  A
O358       Ni360   1.909       .  S
O358        C361   1.285       .  A
Ni359      Ni360   2.380       .  S
C361        C397   1.512       .  S
C362        C625   1.461       .  S
C363        C613   1.449       .  S
O365       Ni373   1.948       .  S
O365        C375   1.290       .  A
O366       Ni373   1.892       .  S
O366        C376   1.276       .  A
O367       Ni373   1.891       .  S
O367        C377   1.275       .  A
O368       Ni373   1.938       .  S
O368        C378   1.286       .  A
O369       Ni374   1.933       .  S
O369        C378   1.288       .  A
O370       Ni374   1.895       .  S
O370        C377   1.280       .  A
O371       Ni374   1.840       .  S
O371        C376   1.270       .  A
O372       Ni374   1.912       .  S
O372        C375   1.278       .  A
Ni373      Ni374   2.396       .  S
C376        C640   1.414       .  S
C377        C601   1.455       .  S
C378        C432   1.505       .  S
O379       Ni387   1.901       .  S
O379        C389   1.282       .  A
O380       Ni387   1.849       .  S
O380        C390   1.269       .  A
O381       Ni387   1.892       .  S
O381        C391   1.282       .  A
O382       Ni387   1.950       .  S
O382        C392   1.285       .  A
O383       Ni388   1.933       .  S
O383        C392   1.288       .  A
O384       Ni388   1.901       .  S
O384        C391   1.273       .  A
O385       Ni388   1.944       .  S
O385        C390   1.285       .  A
O386       Ni388   1.980       .  S
O386        C389   1.296       .  A
Ni387      Ni388   2.383       .  S
C390        C616   1.460       .  S
C391        C604   1.445       .  S
C392        C404   1.508       .  S
N393        C397   1.386       .  A
N393        C394   1.397       .  A
N393        C448   1.479       .  S
C394        C395   1.380       .  A
C394        C592   1.559       .  S
C395        C396   1.352       .  A
C395        H398   1.066       .  S
C396        C397   1.381       .  A
C396        H399   1.083       .  S
N400        C404   1.387       .  A
N400        C401   1.370       .  A
N400        C589   1.474       .  S
C401        C402   1.375       .  A
C401        C490   1.494       .  S
C402        C403   1.373       .  A
C402        H405   1.083       .  S
C403        C404   1.388       .  A
C403        H406   1.083       .  S
N407        C411   1.389       .  A
N407        C408   1.376       .  A
N407        C577   1.474       .  S
C408        C409   1.372       .  A
C409        C410   1.373       .  A
C409        H412   1.082       .  S
C410        C411   1.390       .  A
C410        H413   1.083       .  S
C411        C459   1.519   1_565  S
N414        C418   1.374       .  A
N414        C415   1.370       .  A
N414        C580   1.469       .  S
C415        C416   1.372       .  A
C415        C487   1.467       .  S
C416        C417   1.362       .  A
C416        H419   1.083       .  S
C417        C418   1.389       .  A
C417        H420   1.083       .  S
N421        C425   1.372       .  A
N421        C422   1.396       .  A
N421        C462   1.453       .  S
C422        C423   1.390       .  A
C422        C568   1.574       .  S
C423        C424   1.379       .  A
C423        H426   1.079       .  S
C424        C425   1.377       .  A
C424        H427   1.082       .  S
N428        C432   1.403   1_455  A
N428        C429   1.391       .  A
N428        C565   1.503   1_455  S
C429        C430   1.378       .  A
C429        C473   1.495       .  S
C430        C431   1.358       .  A
C430        H433   1.083       .  S
C431        C432   1.376   1_455  A
C431        H434   1.083       .  S
O435       Ni443   1.935       .  S
O435        C445   1.285       .  A
O436       Ni443   1.894       .  S
O436        C446   1.284       .  A
O437       Ni443   1.894       .  S
O437        C447   1.277       .  A
O438       Ni443   1.934       .  S
O438        C448   1.281       .  A
O439       Ni444   1.953       .  S
O439        C448   1.299       .  A
O440       Ni444   1.937       .  S
O440        C447   1.284       .  A
O441       Ni444   1.899       .  S
O441        C446   1.272       .  A
O442       Ni444   1.925       .  S
O442        C445   1.283       .  A
Ni443      Ni444   2.389       .  S
C445        C495   1.502       .  S
C446        C553   1.452       .  S
C447        C541   1.468       .  S
O449       Ni457   1.945       .  S
O449        C459   1.280       .  A
O450       Ni457   1.892       .  S
O450        C460   1.280       .  A
O451       Ni457   1.890       .  S
O451        C461   1.279       .  A
O452       Ni457   1.925       .  S
O452        C462   1.279   1_455  A
O453       Ni458   1.930   1_655  S
O453        C462   1.291       .  A
O454       Ni458   1.918       .  S
O454        C461   1.277       .  A
O455       Ni458   1.906       .  S
O455        C460   1.275       .  A
O456       Ni458   1.937       .  S
O456        C459   1.288       .  A
Ni457      Ni458   2.386       .  S
C460        C532   1.446       .  S
C461        C517   1.460       .  S
O463       Ni471   1.935       .  S
O463        C473   1.283       .  A
O464       Ni471   1.890       .  S
O464        C474   1.278       .  A
O465       Ni471   1.900       .  S
O465        C475   1.281       .  A
O466       Ni471   1.958       .  S
O466        C476   1.286       .  A
O467       Ni472   1.943       .  S
O467        C476   1.289       .  A
O468       Ni472   1.901       .  S
O468        C475   1.275       .  A
O469       Ni472   1.926       .  S
O469        C474   1.281       .  A
O470       Ni472   1.949       .  S
O470        C473   1.288       .  A
Ni471      Ni472   2.388       .  S
C474        C544   1.458       .  S
C475        C529   1.454       .  S
C476        C499   1.510       .  S
O477       Ni485   1.941       .  S
O477        C487   1.286       .  A
O478       Ni485   1.922       .  S
O478        C488   1.283       .  A
O479       Ni485   1.919       .  S
O479        C489   1.278       .  A
O480       Ni485   1.941       .  S
O480        C490   1.285       .  A
O481       Ni486   1.928       .  S
O481        C490   1.282       .  A
O482       Ni486   1.927       .  S
O482        C489   1.286       .  A
O483       Ni486   1.860       .  S
O483        C488   1.272       .  A
O484       Ni486   1.885       .  S
O484        C487   1.272       .  A
Ni485      Ni486   2.388       .  S
C488        C556   1.463       .  S
C489        C520   1.478       .  S
N491        C495   1.364       .  A
N491        C492   1.365       .  A
C492        C493   1.385       .  A
C492        C505   1.524       .  S
C493        C494   1.378       .  A
C493        H496   1.081       .  S
C494        C495   1.390       .  A
C494        H497   1.082       .  S
N498        C502   1.375       .  A
N498        C499   1.386       .  A
N498        C508   1.465       .  S
C499        C500   1.381       .  A
C500        C501   1.366       .  A
C500        H503   1.083       .  S
C501        C502   1.377       .  A
C501        H504   1.083       .  S
C505        C506   1.415       .  A
C505        C510   1.415       .  A
C506        C507   1.422       .  A
C506        H511   1.083       .  S
C507        C508   1.411       .  A
C507        O512   1.370       .  S
C508        C509   1.411       .  A
C509        C510   1.417       .  A
C509        H513   1.083       .  S
C510        O514   1.372       .  S
O512        H516   0.992       .  S
O514        H515   0.992       .  S
C517        C518   1.391       .  A
C517        C522   1.400       .  A
C518        C519   1.396       .  A
C518        H523   1.084       .  S
C519        C520   1.412       .  A
C519        O524   1.363       .  S
C520        C521   1.406       .  A
C521        C522   1.412       .  A
C521        H525   1.083       .  S
C522        O526   1.366       .  S
O524        H528   0.992       .  S
O526        H527   0.991       .  S
C529        C530   1.399       .  A
C529        C534   1.407       .  A
C530        C531   1.396   1_455  A
C530        H535   1.083   1_455  S
C531        C532   1.407   1_655  A
C531        O536   1.372       .  S
C532        C533   1.397       .  A
C533        C534   1.389       .  A
C533        H537   1.085       .  S
C534        O538   1.373       .  S
O536        H540   0.991       .  S
O538        H539   0.992       .  S
C541        C542   1.393       .  A
C541        C546   1.408       .  A
C542        C543   1.383       .  A
C542        H547   1.068       .  S
C543        C544   1.390       .  A
C543        O548   1.369       .  S
C544        C545   1.410       .  A
C545        C546   1.409       .  A
C545        H549   1.083       .  S
C546        O550   1.371       .  S
O548        H552   0.991       .  S
O550        H551   0.991       .  S
C553        C554   1.397       .  A
C553        C558   1.396       .  A
C554        C555   1.401       .  A
C554        H559   1.083       .  S
C555        C556   1.408       .  A
C555        O560   1.371       .  S
C556        C557   1.409       .  A
C557        C558   1.381       .  A
C557        H561   1.083       .  S
C558        O562   1.374       .  S
O560        H564   0.992       .  S
O562        H563   0.992       .  S
C565        C566   1.413   1_655  A
C565        C570   1.431       .  A
C566        C567   1.433   1_455  A
C566        H571   1.083       .  S
C567        C568   1.431       .  A
C567        O572   1.373   1_655  S
C568        C569   1.421       .  A
C569        C570   1.446       .  A
C569        H573   1.081       .  S
C570        O574   1.368       .  S
O572        H576   0.992   1_455  S
O574        H575   0.991       .  S
C577        C578   1.415       .  A
C577        C582   1.411   1_565  A
C578        C579   1.410       .  A
C578        H583   1.080       .  S
C579        C580   1.409   1_565  A
C579        O584   1.369       .  S
C580        C581   1.409       .  A
C581        C582   1.411       .  A
C581        H585   1.075       .  S
C582        O586   1.367       .  S
O584        H588   0.993       .  S
O586        H587   0.993       .  S
C589        C590   1.394       .  A
C589        C594   1.424       .  A
C590        C591   1.412       .  A
C590        H595   1.081       .  S
C591        C592   1.440       .  A
C591        O596   1.372       .  S
C592        C593   1.418       .  A
C593        C594   1.436       .  A
C593        H597   1.081       .  S
C594        O598   1.370       .  S
O596        H600   0.991       .  S
O598        H599   0.992       .  S
C601        C602   1.401       .  A
C601        C606   1.410       .  A
C602        C603   1.397       .  A
C602        H607   1.083       .  S
C603        C604   1.400       .  A
C603        O608   1.372       .  S
C604        C605   1.397       .  A
C605        C606   1.387       .  A
C605        H609   1.085       .  S
C606        O610   1.372       .  S
O608        H612   0.991       .  S
O610        H611   0.992       .  S
C613        C614   1.389       .  A
C613        C618   1.409       .  A
C614        C615   1.370       .  A
C614        H619   1.086       .  S
C615        C616   1.409       .  A
C615        O620   1.376       .  S
C616        C617   1.406       .  A
C617        C618   1.412       .  A
C617        H621   1.083       .  S
C618        O622   1.371       .  S
O620        H624   0.993       .  S
O622        H623   0.992       .  S
C625        C626   1.395       .  A
C625        C630   1.411       .  A
C626        C627   1.391       .  A
C626        H631   1.081       .  S
C627        C628   1.410       .  A
C627        O632   1.373       .  S
C628        C629   1.398       .  A
C629        C630   1.391       .  A
C629        H633   1.083       .  S
C630        O634   1.372       .  S
O632        H636   0.992       .  S
O634        H635   0.992       .  S
C637        C638   1.405       .  A
C637        C642   1.402       .  A
C638        C639   1.382       .  A
C638        H643   1.083       .  S
C639        C640   1.396       .  A
C639        O644   1.373       .  S
C640        C641   1.395       .  A
C641        C642   1.369       .  A
C641        H645   1.083       .  S
C642        O646   1.373       .  S
O644        H648   0.991       .  S
O646        H647   0.992       .  S
C649        C650   1.416       .  A
C649        C654   1.420       .  A
C650        C651   1.433       .  A
C650        H655   1.081       .  S
C651        C652   1.419       .  A
C651        O656   1.370       .  S
C652        C653   1.410       .  A
C653        C654   1.424       .  A
C653        H657   1.083       .  S
C654        O658   1.372       .  S
O656        H660   0.990       .  S
O658        H659   0.992       .  S
C661        C662   1.396       .  A
C661        C666   1.413       .  A
C662        C663   1.392       .  A
C662        H667   1.085       .  S
C663        C664   1.414       .  A
C663        O668   1.374       .  S
C664        C665   1.399       .  A
C665        C666   1.405       .  A
C665        H669   1.084       .  S
C666        O670   1.372       .  S
O668        H672   0.993       .  S
O670        H671   0.991       .  S
C673        C674   1.398       .  A
C673        C678   1.409       .  A
C674        C675   1.396       .  A
C674        H679   1.084       .  S
C675        C676   1.406       .  A
C675        O680   1.369       .  S
C676        C677   1.396       .  A
C677        C678   1.396       .  A
C677        H681   1.079       .  S
C678        O682   1.371       .  S
O680        H684   0.991       .  S
O682        H683   0.991       .  S
C685        C686   1.406       .  A
C685        C690   1.406       .  A
C686        C687   1.394       .  A
C686        H691   1.083       .  S
C687        C688   1.401       .  A
C687        O692   1.374       .  S
C688        C689   1.412       .  A
C689        C690   1.409       .  A
C689        H693   1.084       .  S
C690        O694   1.371       .  S
O692        H696   0.993       .  S
O694        H695   0.991   1_565  S
C697        C698   1.410       .  A
C697        C702   1.403       .  A
C698        C699   1.404       .  A
C698        H703   1.084       .  S
C699        C700   1.400       .  A
C699        O704   1.368       .  S
C700        C701   1.400       .  A
C701        C702   1.398       .  A
C701        H705   1.077       .  S
C702        O706   1.373       .  S
O704        H708   0.991       .  S
O706        H707   0.992       .  S
C709        C710   1.425       .  A
C709        C714   1.417       .  A
C710        C711   1.432       .  A
C710        H715   1.081       .  S
C711        C712   1.422       .  A
C711        O716   1.370       .  S
C712        C713   1.430       .  A
C713        C714   1.438       .  A
C713        H717   1.077       .  S
C714        O718   1.367       .  S
O716        H720   0.991       .  S
O718        H719   0.990       .  S
C721        C722   1.398       .  A
C721        C726   1.411       .  A
C722        C723   1.372       .  A
C722        H727   1.084       .  S
C723        C724   1.403       .  A
C723        O728   1.374       .  S
C724        C725   1.397       .  A
C725        C726   1.397       .  A
C725        H729   1.081       .  S
C726        O730   1.371       .  S
O728        H732   0.992       .  S
O730        H731   0.992       .  S
C733        C734   1.402       .  A
C733        C738   1.406       .  A
C734        C735   1.374       .  A
C734        H739   1.084       .  S
C735        C736   1.394       .  A
C735        O740   1.371       .  S
C736        C737   1.393       .  A
C737        C738   1.374       .  A
C737        H741   1.085       .  S
C738        O742   1.372       .  S
O740        H744   0.992       .  S
O742        H743   0.992       .  S
C745        C746   1.396       .  A
C745        C750   1.395       .  A
C746        C747   1.363       .  A
C746        H751   1.085       .  S
C747        C748   1.401       .  A
C747        O752   1.374       .  S
C748        C749   1.406       .  A
C749        C750   1.383       .  A
C749        H753   1.084       .  S
C750        O754   1.371       .  S
O752        H756   0.992       .  S
O754        H755   0.992       .  S
C757        C758   1.399       .  A
C757        C762   1.408       .  A
C758        C759   1.389       .  A
C758        H763   1.084       .  S
C759        C760   1.409       .  A
C759        O764   1.373       .  S
C760        C761   1.400       .  A
C761        C762   1.389       .  A
C761        H765   1.083       .  S
C762        O766   1.374       .  S
O764        H768   0.992       .  S
O766        H767   0.991       .  S
C769        C770   1.412       .  A
C769        C774   1.428       .  A
C770        C771   1.424       .  A
C770        H775   1.082       .  S
C771        C772   1.421       .  A
C771        O776   1.371       .  S
C772        C773   1.405       .  A
C773        C774   1.424       .  A
C773        H777   1.078       .  S
C774        O778   1.371       .  S
O776        H780   0.992       .  S
O778        H779   0.991       .  S
C781        C782   1.415       .  A
C781        C786   1.423       .  A
C782        C783   1.425       .  A
C782        H787   1.083       .  S
C783        C784   1.424       .  A
C783        O788   1.371       .  S
C784        C785   1.422       .  A
C785        C786   1.447       .  A
C785        H789   1.081       .  S
C786        O790   1.369       .  S
O788        H792   0.992       .  S
O790        H791   0.991   1_655  S
C793        C794   1.416       .  A
C793        C798   1.413       .  A
C794        C795   1.433       .  A
C794        H799   1.082       .  S
C795        C796   1.422       .  A
C795        O800   1.371       .  S
C796        C797   1.415       .  A
C797        C798   1.420       .  A
C797        H801   1.083       .  S
C798        O802   1.371       .  S
O800        H804   0.992       .  S
O802        H803   0.991       .  S
C805        C806   1.410       .  A
C805        C810   1.393       .  A
C806        C807   1.407       .  A
C806        H811   1.083       .  S
C807        C808   1.403       .  A
C807        O812   1.371       .  S
C808        C809   1.398       .  A
C809        C810   1.386       .  A
C809        H813   1.075       .  S
C810        O814   1.372       .  S
O812        H816   0.992       .  S
O814        H815   0.990       .  S
C817        C818   1.403       .  A
C817        C822   1.411       .  A
C818        C819   1.404       .  A
C818        H823   1.083       .  S
C819        C820   1.408       .  A
C819        O824   1.371       .  S
C820        C821   1.400       .  A
C821        C822   1.394       .  A
C821        H825   1.084       .  S
C822        O826   1.373       .  S
O824        H828   0.991       .  S
O826        H827   0.992       .  S
C829        C830   1.405       .  A
C829        C834   1.402       .  A
C830        C831   1.386       .  A
C830        H835   1.082       .  S
C831        C832   1.397       .  A
C831        O836   1.372       .  S
C832        C833   1.401       .  A
C833        C834   1.397       .  A
C833        H837   1.081       .  S
C834        O838   1.369       .  S
O836        H840   0.991       .  S
O838        H839   0.991       .  S
C841        C842   1.401       .  A
C841        C846   1.396       .  A
C842        C843   1.398       .  A
C842        H847   1.075       .  S
C843        C844   1.403       .  A
C843        O848   1.373       .  S
C844        C845   1.408       .  A
C845        C846   1.402       .  A
C845        H849   1.084   1_565  S
C846        O850   1.362   1_565  S
O848        H852   0.992       .  S
O850        H851   0.993       .  S
C853        C854   1.413       .  A
C853        C858   1.420       .  A
C854        C855   1.429       .  A
C854        H859   1.080       .  S
C855        C856   1.418       .  A
C855        O860   1.367       .  S
C856        C857   1.408       .  A
C857        C858   1.412       .  A
C857        H861   1.083       .  S
C858        O862   1.371       .  S
O860        H864   0.989       .  S
O862        H863   0.992       .  S
C865        C866   1.395       .  A
C865        C870   1.403       .  A
C866        C867   1.391       .  A
C866        H871   1.085       .  S
C867        C868   1.418       .  A
C867        O872   1.373       .  S
C868        C869   1.395       .  A
C869        C870   1.404       .  A
C869        H873   1.073       .  S
C870        O874   1.368       .  S
O872        H876   0.991       .  S
O874        H875   0.991       .  S
C877        C878   1.395       .  A
C877        C882   1.409       .  A
C878        C879   1.377       .  A
C878        H883   1.080       .  S
C879        C880   1.407       .  A
C879        O884   1.377       .  S
C880        C881   1.404       .  A
C881        C882   1.402       .  A
C881        H885   1.083       .  S
C882        O886   1.371       .  S
O884        H888   0.992       .  S
O886        H887   0.992       .  S
C889        C890   1.401       .  A
C889        C894   1.411       .  A
C890        C891   1.411       .  A
C890        H895   1.077       .  S
C891        C892   1.408       .  A
C891        O896   1.368       .  S
C892        C893   1.395       .  A
C893        C894   1.399       .  A
C893        H897   1.084       .  S
C894        O898   1.363       .  S
O896        H900   0.991       .  S
O898        H899   0.992       .  S
C901        C902   1.400       .  A
C901        C906   1.411       .  A
C902        C903   1.393       .  A
C902        H907   1.084       .  S
C903        C904   1.412       .  A
C903        O908   1.372       .  S
C904        C905   1.397       .  A
C905        C906   1.383       .  A
C905        H909   1.085       .  S
C906        O910   1.371       .  S
O908        H912   0.991       .  S
O910        H911   0.992       .  S
C913        C914   1.411       .  A
C913        C918   1.404       .  A
C914        C915   1.416       .  A
C914        H919   1.083       .  S
C915        C916   1.412   1_565  A
C915        O920   1.371       .  S
C916        C917   1.404       .  A
C917        C918   1.413   1_545  A
C917        H921   1.081       .  S
C918        O922   1.362       .  S
O920        H924   0.992       .  S
O922        H923   0.987       .  S
C925        C926   1.419   1_556  A
C925        C930   1.413       .  A
C926        C927   1.425       .  A
C926        H931   1.082       .  S
C927        C928   1.412       .  A
C927        O932   1.372       .  S
C928        C929   1.413   1_554  A
C929        C930   1.419       .  A
C929        H933   1.080       .  S
C930        O934   1.372       .  S
O932        H936   0.991   1_554  S
O934        H935   0.990       .  S
