geometry optimzed in LAMMPS
_audit_creation_date              2020-12-01 
_audit_creation_method            'lammps2cif' 
_symmetry_space_group_name_H-M    'P1' 
_symmetry_Int_Tables_number       1 
_symmetry_cell_setting            triclinic 
loop_ 
_symmetry_equiv_pos_as_xyz 
  x,y,z 
_cell_length_a                    35.6098634 
_cell_length_b                    35.836253266412776 
_cell_length_c                    25.981644121928394 
_cell_angle_alpha                 89.81933491654262 
_cell_angle_beta                  89.65578896274017 
_cell_angle_gamma                 119.77632821570359 
loop_ 
_atom_site_label 
_atom_site_type_symbol 
_atom_site_fract_x 
_atom_site_fract_y 
_atom_site_fract_z 
_atom_site_charge 
C1          C  0.33632256  0.16687270  0.05681656     0.30700
C2          C  0.32990506  0.16095658  0.95090789     0.30700
C3          C  0.36404523  0.15153131  0.03011429    -0.05500
C4          C  0.29098632  0.13609388  0.03596432    -0.06300
C5          C  0.34630495  0.20769115  0.02851702    -0.06200
C6          C  0.36132278  0.14782787  0.97658750    -0.05500
C7          C  0.28767272  0.13131760  0.98229416    -0.06300
C8          C  0.34525330  0.20590904  0.97502166    -0.08600
C9          C  0.38040405  0.12311034  0.96468118    -0.31600
N10         N  0.39591712  0.11495886  0.00869644     0.14900
C11         C  0.38548115  0.13159634  0.04876680    -0.31600
H12         H  0.39053711  0.12695636  0.08879757     0.16900
C13         C  0.24426426  0.10365958  0.97280153    -0.30600
N14         N  0.22167108  0.09534115  0.01788332     0.13600
C15         C  0.24957871  0.11610235  0.05614686    -0.30500
C16         C  0.36334730  0.24821969  0.95853959    -0.30800
N17         N  0.37321057  0.27384533  0.00076049     0.14200
H18         H  0.37134807  0.25969374  0.91921439     0.16800
C19         C  0.36146842  0.24922389  0.04334154    -0.30800
H20         H  0.36665569  0.26135329  0.08220128     0.16800
H21         H  0.23988111  0.11808503  0.09513222     0.16800
H22         H  0.38076859  0.10982435  0.92746274     0.16900
H23         H  0.22970847  0.09264306  0.93557757     0.16800
C24         C  0.33851795  0.17756532  0.44308437     0.30700
C25         C  0.33384271  0.17296073  0.54946441     0.30700
C26         C  0.35535784  0.14991732  0.46826783    -0.05500
C27         C  0.36303218  0.21949623  0.47107892    -0.06300
C28         C  0.29353644  0.15690566  0.46616865    -0.06200
C29         C  0.35404935  0.14794220  0.52235766    -0.05500
C30         C  0.36244594  0.21827989  0.52465995    -0.06300
C31         C  0.29043376  0.15519034  0.51987513    -0.06200
C32         C  0.37388335  0.12432957  0.53552427    -0.31600
N33         N  0.38493935  0.11131128  0.49158385     0.14900
C34         C  0.37278725  0.12558663  0.45070806    -0.31600
H35         H  0.37690075  0.11856442  0.41131470     0.16900
C36         C  0.38861496  0.26073728  0.53907644    -0.30600
N37         N  0.40145560  0.28593089  0.49595636     0.13600
C38         C  0.38641998  0.26102170  0.45433445    -0.30500
C39         C  0.24661956  0.13222339  0.53090786    -0.30800
N40         N  0.22467218  0.12015086  0.48562420     0.14200
H41         H  0.23185889  0.12345029  0.56878891     0.16800
C42         C  0.25297761  0.13371386  0.44616170    -0.30800
H43         H  0.24453171  0.12620880  0.40612163     0.16800
H44         H  0.39101550  0.27253792  0.41495942     0.16800
H45         H  0.38143847  0.11844519  0.57392286     0.16900
H46         H  0.39710365  0.27274294  0.57776652     0.16800
C47         C  0.16657309  0.33145896  0.04902756     0.30700
C48         C  0.16445108  0.32712064  0.94286774     0.30700
C49         C  0.13799586  0.34662236  0.02075782    -0.05500
C50         C  0.21081828  0.35833546  0.01981841    -0.06300
C51         C  0.15153440  0.28618876  0.02518260    -0.06200
C52         C  0.13603397  0.34256837  0.96740317    -0.05500
C53         C  0.20843024  0.35495552  0.96622628    -0.06300
C54         C  0.14859824  0.28429723  0.97141102    -0.06200
C55         C  0.11048165  0.35800093  0.94860821    -0.31600
N56         N  0.09858908  0.37375476  0.98844746     0.14900
C57         C  0.11490807  0.36717969  0.03275867    -0.31600
H58         H  0.11180147  0.37820993  0.07043893     0.16900
C59         C  0.24904633  0.37633115  0.94516084    -0.30600
N60         N  0.27704079  0.39394363  0.98381202     0.13600
C61         C  0.25496135  0.38255945  0.02947601    -0.30500
C62         C  0.12574915  0.24170791  0.95805148    -0.30800
N63         N  0.11963948  0.21760837  0.00022604     0.14200
H64         H  0.11187543  0.22837535  0.92109173     0.16800
C65         C  0.13513081  0.24393379  0.04177921    -0.30800
H66         H  0.13219380  0.23293981  0.08114544     0.16800
H67         H  0.27057515  0.38918920  0.06651057     0.16800
H68         H  0.10323459  0.36019046  0.90872899     0.16900
H69         H  0.25777962  0.37804792  0.90487933     0.16800
C70         C  0.17109299  0.33877629  0.45088584     0.30700
C71         C  0.16721576  0.33357911  0.55694589     0.30700
C72         C  0.14975870  0.36261915  0.47903708    -0.05500
C73         C  0.14565616  0.29341215  0.47543043    -0.06300
C74         C  0.21522968  0.35950860  0.47978786    -0.06200
C75         C  0.14768587  0.35903345  0.53306390    -0.05500
C76         C  0.14449388  0.29183206  0.52870362    -0.06300
C77         C  0.21232917  0.35704473  0.53354881    -0.06200
C78         C  0.13072305  0.38323142  0.55226817    -0.31600
N79         N  0.12199670  0.40142471  0.51233906     0.14900
C80         C  0.13455458  0.39071639  0.46784742    -0.31600
H81         H  0.13262661  0.40299468  0.43048293     0.16900
C82         C  0.12156558  0.25017752  0.54483810    -0.30600
N83         N  0.10822316  0.22561721  0.50279730     0.13600
C84         C  0.12234669  0.25103353  0.45987528    -0.30500
C85         C  0.25297377  0.37993110  0.55357741    -0.30800
N86         N  0.28125043  0.39393945  0.51410419     0.14200
H87         H  0.26158304  0.38616201  0.59371722     0.16800
C88         C  0.25916148  0.38287944  0.46885325    -0.30800
H89         H  0.27400213  0.39188845  0.43106090     0.16800
H90         H  0.11718120  0.23948392  0.42068867     0.16800
H91         H  0.12555633  0.38821143  0.59212154     0.16900
H92         H  0.11572743  0.23836031  0.58416066     0.16800
O93         O  0.04675567  0.46795424  0.03502631    -0.87700
C94         C  0.07352029  0.06205119  0.92707456     0.88300
Mg95       Mg  0.99434505  0.40279864  0.02666905     1.58100
O96         O  0.02149823  0.06669935  0.04209000    -0.87400
O97         O  0.07192770  0.02042188  0.08977444    -0.74700
C98         C  0.32271306  0.41495375  0.97768816     0.93400
O99         O  0.03393046  0.45495003  0.91195763    -0.74600
O100        O  0.33997241  0.39273977  0.96522153    -0.82100
Mg101      Mg  0.08886877  0.99452325  0.96845712     1.58000
C102        C  0.41556600  0.08884973  0.01361780     0.93300
O103        O  0.15337687  0.03608816  0.00760440    -0.80300
H104        H  0.02025742  0.07568451  0.11785123    -0.05700
C105        C  0.43971493  0.50832056  0.91975224     0.88300
O106        O  0.44991413  0.41498828  0.07977337    -0.74800
O107        O  0.07578420  0.04721515  0.96901709    -0.87600
O108        O  0.45656353  0.10662641  0.01096824    -0.80400
C109        C  0.09397016  0.17184971  0.00006260     0.93400
C110        C  0.17560821  0.07482651  0.02223074     0.93300
Mg111      Mg  0.40743529  0.49547153  0.02946409     1.58000
O112        O  0.34479474  0.45489391  0.98677792    -0.80300
O113        O  0.46167673  0.03517504  0.08692122    -0.74600
O114        O  0.11087625  0.14938759  0.01365144    -0.80400
O115        O  0.10332767  0.44012612  0.97614318    -0.82100
O116        O  0.38488662  0.34285825  0.99032213    -0.80400
C117        C  0.50221344  0.06023032  0.08359206     0.87700
O118        O  0.42150878  0.44365943  0.03079055    -0.87600
O119        O  0.45047448  0.02168079  0.96385001    -0.87700
O120        O  0.42518282  0.46904513  0.90939363    -0.74700
Mg121      Mg  0.08808874  0.08090395  0.04259680     1.58000
O122        O  0.05504150  0.15499530  0.98511461    -0.82100
H123        H  0.05424290  0.45894348  0.10937166    -0.05800
O124        O  0.47491662  0.42323833  0.95799750    -0.87400
H125        H  0.47504589  0.41385104  0.88223328    -0.05700
H126        H  0.40541774  0.43050563  0.10515274    -0.05900
C127        C  0.99356619  0.42955146  0.91612524     0.87700
C128        C  0.05773016  0.98125315  0.07910307     0.88300
C129        C  0.42430346  0.42948642  0.07300465     0.88300
H130        H  0.44353013  0.03059492  0.88928961    -0.05800
O131        O  0.04758685  0.07611488  0.92020654    -0.74900
Mg132      Mg  0.40899770  0.40937388  0.95821363     1.58000
H133        H  0.09311080  0.06191542  0.89519592    -0.05800
C134        C  0.07910809  0.39992501  0.98307404     0.93300
O135        O  0.44000444  0.33453644  0.01468091    -0.82100
C136        C  0.40066322  0.31921095  0.00195883     0.93400
O137        O  0.15829135  0.09671197  0.03698450    -0.82100
Mg138      Mg  0.50193121  0.08684721  0.97272750     1.58200
O139        O  0.03820981  0.38236008  0.98661799    -0.80400
O140        O  0.39161447  0.04868957  0.02042510    -0.82100
O141        O  0.02650914  0.45435309  0.46507022    -0.87700
C142        C  0.44183972  0.43828221  0.58348482     0.88300
Mg143      Mg  0.09272825  0.50459269  0.46374219     1.58100
O144        O  0.42761770  0.48238589  0.46776283    -0.87400
O145        O  0.46861732  0.42817045  0.41813125    -0.74700
C146        C  0.08747483  0.18023416  0.50486079     0.93400
O147        O  0.04983906  0.47608283  0.58724640    -0.74600
O148        O  0.10985946  0.16285650  0.51623524    -0.82100
Mg149      Mg  0.50523462  0.41863812  0.53769481     1.58000
C150        C  0.41004974  0.09042954  0.48825540     0.93300
O151        O  0.46096957  0.35363134  0.50389107    -0.80300
H152        H  0.40987027  0.47591856  0.39404468    -0.05700
C153        C  0.99879255  0.07094484  0.57766183     0.88300
O154        O  0.07897814  0.04755035  0.41019381    -0.74800
O155        O  0.45382208  0.43384640  0.54055405    -0.87600
O156        O  0.39306321  0.05171801  0.50327765    -0.80400
C157        C  0.32698524  0.41718337  0.51976800     0.93400
C158        C  0.42100713  0.33137064  0.49410573     0.93300
Mg159      Mg  0.00141323  0.09350431  0.46339852     1.58000
O160        O  0.04733081  0.15878258  0.49562776    -0.80300
O161        O  0.45575252  0.03614414  0.41415834    -0.74600
O162        O  0.34829896  0.39788351  0.51153662    -0.80400
O163        O  0.05815192  0.40145760  0.53099489    -0.82100
O164        O  0.15677598  0.11386156  0.48576213    -0.80400
C165        C  0.42969266  0.99703908  0.42429383     0.87700
O166        O  0.05222101  0.07739765  0.45975964    -0.87600
O167        O  0.48075579  0.05771085  0.53601859    -0.87700
O168        O  0.03872621  0.08387885  0.58275639    -0.74700
Mg169      Mg  0.41315456  0.41678314  0.47286758     1.58000
O170        O  0.34500144  0.45665427  0.53128307    -0.82100
H171        H  0.02752927  0.44201461  0.39026759    -0.05800
O172        O  0.07883623  0.02937591  0.53299705    -0.87400
H173        H  0.09578123  0.03635904  0.60702074    -0.05700
H174        H  0.06206101  0.09070297  0.38446876    -0.05900
C175        C  0.07624877  0.51502512  0.57676590     0.87700
C176        C  0.50857148  0.44124066  0.42334386     0.88300
C177        C  0.06444011  0.07304613  0.41692063     0.88300
H178        H  0.47994052  0.07036294  0.61074956    -0.05800
O179        O  0.42799614  0.46427357  0.59057334    -0.74900
Mg180      Mg  0.09341699  0.09466118  0.52705854     1.58000
H181        H  0.44407494  0.42041472  0.61579748    -0.05800
C182        C  0.09724668  0.42262498  0.51567803     0.93300
O183        O  0.16211514  0.05566422  0.47053613    -0.82100
C184        C  0.17908389  0.09541042  0.48002507     0.93400
O185        O  0.39768877  0.34801352  0.48330121    -0.82100
Mg186      Mg  0.41447309  0.00749746  0.53764016     1.58200
O187        O  0.11418817  0.46106634  0.49972384    -0.80400
O188        O  0.44899406  0.11157722  0.47227516    -0.82100
C189        C  0.16826827  0.35969323  0.80075121    -0.11200
C190        C  0.15683157  0.32052509  0.77738631     0.11400
C191        C  0.15469320  0.28630162  0.80636140    -0.03000
C192        C  0.16391511  0.29289823  0.85846053    -0.05800
C193        C  0.16658038  0.32852414  0.88430966    -0.16500
C194        C  0.17414872  0.36510790  0.85388757     0.02400
C195        C  0.15638452  0.31984310  0.72143311     0.12300
C196        C  0.14418407  0.24303311  0.78399051     0.63000
H197        H  0.16991395  0.27001561  0.87834386     0.12400
C198        C  0.19131672  0.41128000  0.87205727     0.55100
H199        H  0.17393852  0.38688325  0.77673350     0.08200
C200        C  0.12244934  0.31905324  0.69319788    -0.05600
C201        C  0.12658318  0.32184556  0.63970497    -0.06400
C202        C  0.16360593  0.32591316  0.61454035    -0.16000
C203        C  0.19104599  0.31507141  0.64313792    -0.01600
C204        C  0.18990002  0.31742159  0.69649092    -0.09100
C205        C  0.08187330  0.31397257  0.71933448     0.65200
H206        H  0.10016987  0.31958559  0.61720360     0.10600
C207        C  0.21793452  0.29582704  0.62242726     0.63600
H208        H  0.21349730  0.31399148  0.71920341     0.08000
F209        F  0.16255982  0.42491708  0.85837318    -0.19500
F210        F  0.23039750  0.43750662  0.84743457    -0.15700
F211        F  0.19845038  0.41759735  0.92408090    -0.19200
F212        F  0.18202241  0.24168137  0.77717375    -0.22600
F213        F  0.12289401  0.23496768  0.73749747    -0.24100
F214        F  0.11743116  0.21038701  0.81762232    -0.18100
F215        F  0.26099852  0.32216692  0.63464819    -0.20500
F216        F  0.21479901  0.28862812  0.57019022    -0.21700
F217        F  0.20379686  0.25632574  0.64604590    -0.18900
F218        F  0.05104673  0.30965821  0.68397719    -0.19000
F219        F  0.09190701  0.34951307  0.74918938    -0.22800
F220        F  0.06387716  0.27762902  0.75033072    -0.24400
C221        C  0.19523329  0.32604558  0.30522037    -0.11200
C222        C  0.16796480  0.33743092  0.27903705     0.11400
C223        C  0.13978548  0.34610652  0.30895144    -0.03000
C224        C  0.14157157  0.34502311  0.36334925    -0.05800
C225        C  0.17146073  0.33740135  0.39048527    -0.16500
C226        C  0.19620073  0.32373062  0.35980715     0.02400
C227        C  0.16775312  0.33731150  0.22058290     0.12300
C228        C  0.10713291  0.35588067  0.28384846     0.63000
H229        H  0.11673689  0.34696442  0.38475154     0.12400
C230        C  0.22228169  0.30368253  0.38011472     0.55100
H231        H  0.21495830  0.31693679  0.28236363     0.08200
C232        C  0.20079322  0.37053848  0.19041015    -0.05600
C233        C  0.19852307  0.36792491  0.13585073    -0.06400
C234        C  0.16434605  0.33347121  0.10927433    -0.16000
C235        C  0.12818847  0.30369483  0.14048610    -0.01600
C236        C  0.13245982  0.30430707  0.19475848    -0.09100
C237        C  0.23796077  0.40922905  0.21591904     0.65200
H238        H  0.22271343  0.39451444  0.11383807     0.10600
C239        C  0.08281888  0.27250161  0.12138335     0.63600
H240        H  0.10647664  0.27947866  0.21767675     0.08000
F241        F  0.26565844  0.33075804  0.36918846    -0.19500
F242        F  0.20912651  0.26502003  0.35537227    -0.15700
F243        F  0.21756963  0.29478276  0.43203682    -0.19200
F244        F  0.07514125  0.31940396  0.26052762    -0.22600
F245        F  0.12744709  0.38811792  0.24736178    -0.24100
F246        F  0.08740057  0.36944659  0.31941244    -0.18100
F247        F  0.07245513  0.23080306  0.13324291    -0.20500
F248        F  0.07699218  0.27510162  0.06948593    -0.21700
F249        F  0.05360815  0.28110035  0.14653906    -0.18900
F250        F  0.26497176  0.43973382  0.18026682    -0.19000
F251        F  0.26245027  0.39637017  0.24398960    -0.22800
F252        F  0.22189183  0.42849748  0.24854668    -0.24400
C253        C  0.29371344  0.15916902  0.80713863    -0.11200
C254        C  0.32872596  0.16173032  0.77907482     0.11400
C255        C  0.36596382  0.16938778  0.80696418    -0.03000
C256        C  0.36396410  0.16690488  0.86161745    -0.05800
C257        C  0.32776324  0.16168013  0.89055485    -0.16500
C258        C  0.29436530  0.16345628  0.86148598     0.02400
C259        C  0.32774242  0.16273794  0.72069523     0.12300
C260        C  0.40886443  0.18416256  0.77930833     0.63000
H261        H  0.39247835  0.17236437  0.88210646     0.12400
C262        C  0.26096792  0.17430160  0.88274343     0.55100
H263        H  0.26686427  0.15750519  0.78574039     0.08200
C264        C  0.31911506  0.12690082  0.68965378    -0.05600
C265        C  0.32186707  0.13169417  0.63509643    -0.06400
C266        C  0.32873226  0.16971741  0.60975027    -0.16000
C267        C  0.32594926  0.20077392  0.64201951    -0.01600
C268        C  0.33021845  0.19880282  0.69604931    -0.09100
C269        C  0.30306898  0.08286337  0.71399556     0.65200
H270        H  0.31600959  0.10446155  0.61181618     0.10600
C271        C  0.31246990  0.23293665  0.62443843     0.63600
H272        H  0.33174768  0.22431556  0.71988018     0.08000
F273        F  0.21982715  0.13965073  0.87646129    -0.19500
F274        F  0.26372192  0.20870251  0.85513900    -0.15700
F275        F  0.26660368  0.18615335  0.93367304    -0.19200
F276        F  0.41982551  0.22125965  0.75159544    -0.22600
F277        F  0.40602069  0.15306254  0.74584006    -0.24100
F278        F  0.44201004  0.19319177  0.81338944    -0.18100
F279        F  0.27661249  0.22623726  0.65284032    -0.20500
F280        F  0.30094187  0.22907842  0.57338488    -0.21700
F281        F  0.34530816  0.27439490  0.63364842    -0.18900
F282        F  0.29478250  0.05174576  0.67743214    -0.19000
F283        F  0.26501047  0.07100911  0.74071246    -0.22800
F284        F  0.33308659  0.08349877  0.74785128    -0.24400
C285        C  0.38055146  0.20996308  0.19142518    -0.11200
C286        C  0.34771106  0.17857117  0.22203219     0.11400
C287        C  0.31510918  0.14044835  0.19993902    -0.03000
C288        C  0.31435876  0.13700112  0.14642531    -0.05800
C289        C  0.34400667  0.17085672  0.11465061    -0.16500
C290        C  0.38173647  0.20486737  0.13828048     0.02400
C291        C  0.35003481  0.18477973  0.27772331     0.12300
C292        C  0.28144276  0.10363550  0.23271560     0.63000
H293        H  0.29123196  0.10697393  0.12942884     0.12400
C294        C  0.42547636  0.23465272  0.11269101     0.55100
H295        H  0.40674711  0.23784835  0.20967372     0.08200
C296        C  0.38022459  0.18010482  0.30777826    -0.05600
C297        C  0.37794204  0.18334088  0.36094262    -0.06400
C298        C  0.34312658  0.18459238  0.38498197    -0.16000
C299        C  0.31859205  0.19799251  0.35431045    -0.01600
C300        C  0.32141314  0.19587129  0.30073034    -0.09100
C301        C  0.41363910  0.17025827  0.28450215     0.65200
H302        H  0.40388575  0.18520850  0.38398048     0.10600
C303        C  0.29154490  0.21751324  0.37347084     0.63600
H304        H  0.30115355  0.20310372  0.27638585     0.08000
F305        F  0.45649399  0.22775294  0.13561658    -0.19500
F306        F  0.43666830  0.27709752  0.12059199    -0.15700
F307        F  0.42749073  0.22864800  0.06067108    -0.19200
F308        F  0.25532722  0.11644681  0.25752476    -0.22600
F309        F  0.30163471  0.09148493  0.26900622    -0.24100
F310        F  0.25518551  0.06792469  0.20343821    -0.18100
F311        F  0.30522472  0.25639615  0.34850331    -0.20500
F312        F  0.29476085  0.22586624  0.42544899    -0.21700
F313        F  0.24853057  0.19051184  0.36157400    -0.18900
F314        F  0.43554495  0.16132332  0.32205392    -0.19000
F315        F  0.44379178  0.20504659  0.25610076    -0.22800
F316        F  0.39356078  0.13474112  0.25296436    -0.24400
C317        C  0.33632264  0.66687271  0.05681653     0.30700
C318        C  0.32990509  0.66095652  0.95090785     0.30700
C319        C  0.36404530  0.65153130  0.03011428    -0.05500
C320        C  0.29098638  0.63609387  0.03596432    -0.06300
C321        C  0.34630502  0.70769113  0.02851693    -0.06200
C322        C  0.36132281  0.64782781  0.97658749    -0.05500
C323        C  0.28767274  0.63131755  0.98229415    -0.06300
C324        C  0.34525333  0.70590897  0.97502160    -0.08600
C325        C  0.38040420  0.62311040  0.96468120    -0.31600
N326        N  0.39591734  0.61495901  0.00869642     0.14900
C327        C  0.38548135  0.63159647  0.04876680    -0.31600
H328        H  0.39053738  0.62695654  0.08879757     0.16900
C329        C  0.24426427  0.60365956  0.97280156    -0.30600
N330        N  0.22167112  0.59534118  0.01788335     0.13600
C331        C  0.24957878  0.61610236  0.05614691    -0.30500
C332        C  0.36334744  0.74821963  0.95853945    -0.30800
N333        N  0.37321075  0.77384531  0.00076037     0.14200
H334        H  0.37134821  0.75969360  0.91921441     0.16800
C335        C  0.36146857  0.74922391  0.04334141    -0.30800
H336        H  0.36665580  0.76135333  0.08220111     0.16800
H337        H  0.23988123  0.61808502  0.09513225     0.16800
H338        H  0.38076872  0.60982436  0.92746266     0.16900
H339        H  0.22970840  0.59264305  0.93557760     0.16800
C340        C  0.33851807  0.67756527  0.44308434     0.30700
C341        C  0.33384288  0.67296069  0.54946437     0.30700
C342        C  0.35535807  0.64991738  0.46826781    -0.05500
C343        C  0.36303223  0.71949622  0.47107884    -0.06300
C344        C  0.29353654  0.65690543  0.46616862    -0.06200
C345        C  0.35404960  0.64794224  0.52235765    -0.05500
C346        C  0.36244604  0.71827988  0.52465989    -0.06300
C347        C  0.29043391  0.65519016  0.51987511    -0.06200
C348        C  0.37388356  0.62432960  0.53552425    -0.31600
N349        N  0.38493952  0.61131128  0.49158386     0.14900
C350        C  0.37278739  0.62558661  0.45070804    -0.31600
H351        H  0.37690080  0.61856436  0.41131470     0.16900
C352        C  0.38861509  0.76073730  0.53907630    -0.30600
N353        N  0.40145566  0.78593090  0.49595620     0.13600
C354        C  0.38642006  0.76102167  0.45433435    -0.30500
C355        C  0.24661970  0.63222335  0.53090789    -0.30800
N356        N  0.22467225  0.62015082  0.48562427     0.14200
H357        H  0.23185907  0.62345040  0.56878897     0.16800
C358        C  0.25297767  0.63371362  0.44616174    -0.30800
H359        H  0.24453174  0.62620853  0.40612169     0.16800
H360        H  0.39101568  0.77253789  0.41495918     0.16800
H361        H  0.38143868  0.61844517  0.57392287     0.16900
H362        H  0.39710382  0.77274300  0.57776640     0.16800
C363        C  0.16657303  0.83145877  0.04902757     0.30700
C364        C  0.16445112  0.82712064  0.94286777     0.30700
C365        C  0.13799585  0.84662229  0.02075788    -0.05500
C366        C  0.21081825  0.85833521  0.01981844    -0.06300
C367        C  0.15153427  0.78618859  0.02518254    -0.06200
C368        C  0.13603410  0.84256846  0.96740320    -0.05500
C369        C  0.20843027  0.85495536  0.96622632    -0.06300
C370        C  0.14859811  0.78429714  0.97141094    -0.06200
C371        C  0.11048184  0.85800109  0.94860818    -0.31600
N372        N  0.09858913  0.87375475  0.98844746     0.14900
C373        C  0.11490800  0.86717958  0.03275869    -0.31600
H374        H  0.11180132  0.87820975  0.07043898     0.16900
C375        C  0.24904639  0.87633091  0.94516095    -0.30600
N376        N  0.27704080  0.89394329  0.98381213     0.13600
C377        C  0.25496134  0.88255919  0.02947614    -0.30500
C378        C  0.12574905  0.74170784  0.95805139    -0.30800
N379        N  0.11963933  0.71760826  0.00022591     0.14200
H380        H  0.11187533  0.72837523  0.92109147     0.16800
C381        C  0.13513067  0.74393362  0.04177909    -0.30800
H382        H  0.13219368  0.73293958  0.08114540     0.16800
H383        H  0.27057507  0.88918898  0.06651057     0.16800
H384        H  0.10323486  0.86019070  0.90872896     0.16900
H385        H  0.25777973  0.87804774  0.90487933     0.16800
C386        C  0.17109310  0.83877634  0.45088586     0.30700
C387        C  0.16721585  0.83357915  0.55694592     0.30700
C388        C  0.14975877  0.86261917  0.47903713    -0.05500
C389        C  0.14565628  0.79341221  0.47543044    -0.06300
C390        C  0.21522980  0.85950864  0.47978788    -0.06200
C391        C  0.14768588  0.85903344  0.53306397    -0.05500
C392        C  0.14449401  0.79183210  0.52870364    -0.06300
C393        C  0.21232927  0.85704480  0.53354882    -0.06200
C394        C  0.13072308  0.88323143  0.55226818    -0.31600
N395        N  0.12199677  0.90142477  0.51233915     0.14900
C396        C  0.13455470  0.89071647  0.46784747    -0.31600
H397        H  0.13262678  0.90299476  0.43048305     0.16900
C398        C  0.12156573  0.75017755  0.54483808    -0.30600
N399        N  0.10822326  0.72561729  0.50279724     0.13600
C400        C  0.12234681  0.75103362  0.45987525    -0.30500
C401        C  0.25297385  0.87993115  0.55357744    -0.30800
N402        N  0.28125053  0.89393948  0.51410428     0.14200
H403        H  0.26158309  0.88616210  0.59371728     0.16800
C404        C  0.25916163  0.88287944  0.46885330    -0.30800
H405        H  0.27400234  0.89188844  0.43106098     0.16800
H406        H  0.11718136  0.73948401  0.42068863     0.16800
H407        H  0.12555632  0.88821145  0.59212175     0.16900
H408        H  0.11572754  0.73836030  0.58416062     0.16800
O409        O  0.04675556  0.96795409  0.03502636    -0.87700
C410        C  0.07352025  0.56205112  0.92707436     0.88300
Mg411      Mg  0.99434493  0.90279856  0.02666923     1.58100
O412        O  0.02149823  0.56669929  0.04208984    -0.87400
O413        O  0.07192771  0.52042200  0.08977446    -0.74700
C414        C  0.32271308  0.91495356  0.97768839     0.93400
O415        O  0.03393037  0.95495007  0.91195767    -0.74600
O416        O  0.33997253  0.89273970  0.96522164    -0.82100
Mg417      Mg  0.08886891  0.49452329  0.96845710     1.58000
C418        C  0.41556614  0.58884981  0.01361782     0.93300
O419        O  0.15337697  0.53608819  0.00760441    -0.80300
H420        H  0.02025764  0.57568482  0.11785103    -0.05700
C421        C  0.43971470  0.00832036  0.91975224     0.88300
O422        O  0.44991435  0.91498821  0.07977344    -0.74800
O423        O  0.07578440  0.54721523  0.96901693    -0.87600
O424        O  0.45656366  0.60662645  0.01096827    -0.80400
C425        C  0.09397010  0.67184960  0.00006246     0.93400
C426        C  0.17560827  0.57482654  0.02223078     0.93300
Mg427      Mg  0.40743530  0.99547153  0.02946420     1.58000
O428        O  0.34479463  0.95489368  0.98677835    -0.80300
O429        O  0.46167675  0.53517481  0.08692124    -0.74600
O430        O  0.11087632  0.64938756  0.01365120    -0.80400
O431        O  0.10332751  0.94012599  0.97614283    -0.82100
O432        O  0.38488676  0.84285824  0.99032212    -0.80400
C433        C  0.50221345  0.56023025  0.08359221     0.87700
O434        O  0.42150888  0.94365943  0.03079087    -0.87600
O435        O  0.45047457  0.52168093  0.96385004    -0.87700
O436        O  0.42518261  0.96904492  0.90939372    -0.74700
Mg437      Mg  0.08808877  0.58090398  0.04259668     1.58000
O438        O  0.05504141  0.65499513  0.98511457    -0.82100
H439        H  0.05424273  0.95894328  0.10937178    -0.05800
O440        O  0.47491662  0.92323838  0.95799752    -0.87400
H441        H  0.47504584  0.91385112  0.88223328    -0.05700
H442        H  0.40541781  0.93050534  0.10515313    -0.05900
C443        C  0.99356613  0.92955141  0.91612523     0.87700
C444        C  0.05773027  0.48125328  0.07910305     0.88300
C445        C  0.42430364  0.92948633  0.07300487     0.88300
H446        H  0.44353058  0.53059525  0.88928955    -0.05800
O447        O  0.04758666  0.57611468  0.92020653    -0.74900
Mg448      Mg  0.40899774  0.90937389  0.95821383     1.58000
H449        H  0.09311059  0.56191538  0.89519572    -0.05800
C450        C  0.07910802  0.89992492  0.98307407     0.93300
O451        O  0.44000461  0.83453646  0.01468076    -0.82100
C452        C  0.40066339  0.81921095  0.00195869     0.93400
O453        O  0.15829138  0.59671198  0.03698449    -0.82100
Mg454      Mg  0.50193135  0.58684734  0.97272756     1.58200
O455        O  0.03820979  0.88235993  0.98661873    -0.80400
O456        O  0.39161455  0.54868967  0.02042513    -0.82100
O457        O  0.02650919  0.95435302  0.46507026    -0.87700
C458        C  0.44183973  0.93828237  0.58348487     0.88300
Mg459      Mg  0.09272826  0.00459263  0.46374220     1.58100
O460        O  0.42761767  0.98238599  0.46776294    -0.87400
O461        O  0.46861729  0.92817048  0.41813132    -0.74700
C462        C  0.08747483  0.68023425  0.50486064     0.93400
O463        O  0.04983895  0.97608283  0.58724640    -0.74600
O464        O  0.10985930  0.66285652  0.51623551    -0.82100
Mg465      Mg  0.50523461  0.91863819  0.53769482     1.58000
C466        C  0.41004992  0.59042956  0.48825547     0.93300
O467        O  0.46096959  0.85363136  0.50389110    -0.80300
H468        H  0.40987012  0.97591845  0.39404485    -0.05700
C469        C  0.99879253  0.57094503  0.57766166     0.88300
O470        O  0.07897810  0.54755038  0.41019374    -0.74800
O471        O  0.45382204  0.93384644  0.54055411    -0.87600
O472        O  0.39306338  0.55171799  0.50327764    -0.80400
C473        C  0.32698533  0.91718341  0.51976819     0.93400
C474        C  0.42100717  0.83137067  0.49410564     0.93300
Mg475      Mg  0.00141318  0.59350437  0.46339821     1.58000
O476        O  0.04733091  0.65878277  0.49562698    -0.80300
O477        O  0.45575249  0.53614424  0.41415852    -0.74600
O478        O  0.34829904  0.89788351  0.51153702    -0.80400
O479        O  0.05815194  0.90145761  0.53099490    -0.82100
O480        O  0.15677606  0.61386163  0.48576252    -0.80400
C481        C  0.42969272  0.49703911  0.42429380     0.87700
O482        O  0.05222098  0.57739772  0.45975950    -0.87600
O483        O  0.48075579  0.55771075  0.53601883    -0.87700
O484        O  0.03872615  0.58387890  0.58275636    -0.74700
Mg485      Mg  0.41315455  0.91678319  0.47286775     1.58000
O486        O  0.34500152  0.95665434  0.53128312    -0.82100
H487        H  0.02752940  0.94201462  0.39026770    -0.05800
O488        O  0.07883620  0.52937592  0.53299705    -0.87400
H489        H  0.09578150  0.53635902  0.60702067    -0.05700
H490        H  0.06206093  0.59070300  0.38446850    -0.05900
C491        C  0.07624866  0.01502513  0.57676593     0.87700
C492        C  0.50857144  0.94124075  0.42334392     0.88300
C493        C  0.06444007  0.57304614  0.41692055     0.88300
H494        H  0.47994078  0.57036273  0.61074989    -0.05800
O495        O  0.42799626  0.96427383  0.59057332    -0.74900
Mg496      Mg  0.09341690  0.59466119  0.52705860     1.58000
H497        H  0.44407488  0.92041491  0.61579756    -0.05800
C498        C  0.09724671  0.92262501  0.51567803     0.93300
O499        O  0.16211511  0.55566428  0.47053616    -0.82100
C500        C  0.17908393  0.59541046  0.48002525     0.93400
O501        O  0.39768880  0.84801356  0.48330121    -0.82100
Mg502      Mg  0.41447308  0.50749730  0.53764016     1.58200
O503        O  0.11418817  0.96106635  0.49972384    -0.80400
O504        O  0.44899429  0.61157731  0.47227548    -0.82100
C505        C  0.16826896  0.85969365  0.80075131    -0.11200
C506        C  0.15683211  0.82052548  0.77738637     0.11400
C507        C  0.15469328  0.78630182  0.80636142    -0.03000
C508        C  0.16391511  0.79289830  0.85846057    -0.05800
C509        C  0.16658051  0.82852426  0.88430973    -0.16500
C510        C  0.17414918  0.86510816  0.85388776     0.02400
C511        C  0.15638501  0.81984347  0.72143318     0.12300
C512        C  0.14418432  0.74303347  0.78399016     0.63000
H513        H  0.16991392  0.77001571  0.87834379     0.12400
C514        C  0.19131726  0.91128025  0.87205760     0.55100
H515        H  0.17393934  0.88688366  0.77673366     0.08200
C516        C  0.12244970  0.81905339  0.69319801    -0.05600
C517        C  0.12658336  0.82184557  0.63970510    -0.06400
C518        C  0.16360609  0.82591322  0.61454041    -0.16000
C519        C  0.19104636  0.81507172  0.64313798    -0.01600
C520        C  0.18990050  0.81742203  0.69649096    -0.09100
C521        C  0.08187372  0.81397267  0.71933473     0.65200
H522        H  0.10016999  0.81958554  0.61720383     0.10600
C523        C  0.21793482  0.79582731  0.62242734     0.63600
H524        H  0.21349798  0.81399211  0.71920350     0.08000
F525        F  0.16256048  0.92491743  0.85837347    -0.19500
F526        F  0.23039809  0.93750676  0.84743497    -0.15700
F527        F  0.19845080  0.91759761  0.92408128    -0.19200
F528        F  0.18202295  0.74168270  0.77717099    -0.22600
F529        F  0.12289255  0.73496763  0.73749824    -0.24100
F530        F  0.11743307  0.71038710  0.81762267    -0.18100
F531        F  0.26099890  0.82216727  0.63464787    -0.20500
F532        F  0.21479898  0.78862814  0.57019037    -0.21700
F533        F  0.20379729  0.75632613  0.64604626    -0.18900
F534        F  0.05104704  0.80965832  0.68397759    -0.19000
F535        F  0.09190751  0.84951312  0.74918977    -0.22800
F536        F  0.06387767  0.77762906  0.75033081    -0.24400
C537        C  0.19523343  0.82604564  0.30522038    -0.11200
C538        C  0.16796496  0.83743098  0.27903706     0.11400
C539        C  0.13978561  0.84610655  0.30895144    -0.03000
C540        C  0.14157169  0.84502314  0.36334926    -0.05800
C541        C  0.17146086  0.83740139  0.39048527    -0.16500
C542        C  0.19620091  0.82373071  0.35980714     0.02400
C543        C  0.16775325  0.83731154  0.22058292     0.12300
C544        C  0.10713302  0.85588065  0.28384845     0.63000
H545        H  0.11673704  0.84696446  0.38475153     0.12400
C546        C  0.22228176  0.80368251  0.38011472     0.55100
H547        H  0.21495848  0.81693682  0.28236359     0.08200
C548        C  0.20079331  0.87053848  0.19041008    -0.05600
C549        C  0.19852308  0.86792483  0.13585067    -0.06400
C550        C  0.16434609  0.83347099  0.10927437    -0.16000
C551        C  0.12818855  0.80369466  0.14048623    -0.01600
C552        C  0.13245997  0.80430702  0.19475859    -0.09100
C553        C  0.23796091  0.90922907  0.21591888     0.65200
H554        H  0.22271332  0.89451438  0.11383794     0.10600
C555        C  0.08281897  0.77250139  0.12138354     0.63600
H556        H  0.10647685  0.77947862  0.21767697     0.08000
F557        F  0.26565856  0.83075783  0.36918847    -0.19500
F558        F  0.20912644  0.76501999  0.35537228    -0.15700
F559        F  0.21756963  0.79478276  0.43203682    -0.19200
F560        F  0.07514138  0.81940391  0.26052761    -0.22600
F561        F  0.12744710  0.88811791  0.24736178    -0.24100
F562        F  0.08740071  0.86944656  0.31941247    -0.18100
F563        F  0.07245526  0.73080285  0.13324303    -0.20500
F564        F  0.07699228  0.77510141  0.06948617    -0.21700
F565        F  0.05360821  0.78110009  0.14653920    -0.18900
F566        F  0.26497197  0.93973374  0.18026657    -0.19000
F567        F  0.26245027  0.89637021  0.24398981    -0.22800
F568        F  0.22189201  0.92849761  0.24854634    -0.24400
C569        C  0.29371347  0.65916885  0.80713855    -0.11200
C570        C  0.32872603  0.66173016  0.77907476     0.11400
C571        C  0.36596387  0.66938760  0.80696413    -0.03000
C572        C  0.36396414  0.66690479  0.86161741    -0.05800
C573        C  0.32776329  0.66168009  0.89055480    -0.16500
C574        C  0.29436535  0.66345621  0.86148590     0.02400
C575        C  0.32774257  0.66273785  0.72069515     0.12300
C576        C  0.40886455  0.68416255  0.77930831     0.63000
H577        H  0.39247841  0.67236433  0.88210648     0.12400
C578        C  0.26096794  0.67430154  0.88274340     0.55100
H579        H  0.26686434  0.65750500  0.78574035     0.08200
C580        C  0.31911522  0.62690075  0.68965368    -0.05600
C581        C  0.32186721  0.63169409  0.63509636    -0.06400
C582        C  0.32873236  0.66971731  0.60975020    -0.16000
C583        C  0.32594923  0.70077375  0.64201943    -0.01600
C584        C  0.33021856  0.69880273  0.69604923    -0.09100
C585        C  0.30306926  0.58286334  0.71399541     0.65200
H586        H  0.31600975  0.60446142  0.61181607     0.10600
C587        C  0.31246979  0.73293645  0.62443833     0.63600
H588        H  0.33174780  0.72431541  0.71988001     0.08000
F589        F  0.21982713  0.63965071  0.87646135    -0.19500
F590        F  0.26372179  0.70870236  0.85513895    -0.15700
F591        F  0.26660384  0.68615337  0.93367300    -0.19200
F592        F  0.41982567  0.72125991  0.75159593    -0.22600
F593        F  0.40602098  0.65306286  0.74583961    -0.24100
F594        F  0.44201001  0.69319131  0.81338945    -0.18100
F595        F  0.27661228  0.72623698  0.65284008    -0.20500
F596        F  0.30094175  0.72907816  0.57338479    -0.21700
F597        F  0.34530799  0.77439476  0.63364836    -0.18900
F598        F  0.29478249  0.55174575  0.67743186    -0.19000
F599        F  0.26501088  0.57100911  0.74071258    -0.22800
F600        F  0.33308705  0.58349875  0.74785086    -0.24400
C601        C  0.38055162  0.70996315  0.19142511    -0.11200
C602        C  0.34771129  0.67857123  0.22203215     0.11400
C603        C  0.31510939  0.64044836  0.19993899    -0.03000
C604        C  0.31435896  0.63700115  0.14642530    -0.05800
C605        C  0.34400677  0.67085678  0.11465058    -0.16500
C606        C  0.38173657  0.70486746  0.13828044     0.02400
C607        C  0.35003505  0.68477983  0.27772327     0.12300
C608        C  0.28144289  0.60363553  0.23271557     0.63000
H609        H  0.29123214  0.60697392  0.12942881     0.12400
C610        C  0.42547640  0.73465285  0.11269096     0.55100
H611        H  0.40674734  0.73784851  0.20967362     0.08200
C612        C  0.38022482  0.68010497  0.30777823    -0.05600
C613        C  0.37794221  0.68334089  0.36094261    -0.06400
C614        C  0.34312671  0.68459235  0.38498194    -0.16000
C615        C  0.31859213  0.69799238  0.35431045    -0.01600
C616        C  0.32141321  0.69587120  0.30073029    -0.09100
C617        C  0.41363947  0.67025864  0.28450212     0.65200
H618        H  0.40388585  0.68520850  0.38398045     0.10600
C619        C  0.29154487  0.71751300  0.37347083     0.63600
H620        H  0.30115359  0.70310343  0.27638594     0.08000
F621        F  0.45649410  0.72775322  0.13561657    -0.19500
F622        F  0.43666824  0.77709761  0.12059194    -0.15700
F623        F  0.42749074  0.72864807  0.06067105    -0.19200
F624        F  0.25532720  0.61644684  0.25752435    -0.22600
F625        F  0.30163479  0.59148522  0.26900656    -0.24100
F626        F  0.25518575  0.56792456  0.20343830    -0.18100
F627        F  0.30522472  0.75639592  0.34850331    -0.20500
F628        F  0.29476068  0.72586596  0.42544901    -0.21700
F629        F  0.24853058  0.69051153  0.36157393    -0.18900
F630        F  0.43554538  0.66132372  0.32205386    -0.19000
F631        F  0.44379202  0.70504713  0.25610082    -0.22800
F632        F  0.39356123  0.63474150  0.25296430    -0.24400
C633        C  0.83632263  0.16687276  0.05681662     0.30700
C634        C  0.82990513  0.16095659  0.95090796     0.30700
C635        C  0.86404523  0.15153127  0.03011441    -0.05500
C636        C  0.79098637  0.13609397  0.03596440    -0.06300
C637        C  0.84630508  0.20769122  0.02851702    -0.06200
C638        C  0.86132277  0.14782779  0.97658761    -0.05500
C639        C  0.78767275  0.13131766  0.98229423    -0.06300
C640        C  0.84525341  0.20590906  0.97502168    -0.08600
C641        C  0.88040419  0.12311042  0.96468133    -0.31600
N642        N  0.89591732  0.11495902  0.00869655     0.14900
C643        C  0.88548130  0.13159645  0.04876694    -0.31600
H644        H  0.89053739  0.12695657  0.08879771     0.16900
C645        C  0.74426432  0.10365960  0.97280166    -0.30600
N646        N  0.72167114  0.09534116  0.01788343     0.13600
C647        C  0.74957880  0.11610233  0.05614699    -0.30500
C648        C  0.86334749  0.24821971  0.95853953    -0.30800
N649        N  0.87321079  0.27384537  0.00076043     0.14200
H650        H  0.87134829  0.25969373  0.91921444     0.16800
C651        C  0.86146864  0.24922400  0.04334149    -0.30800
H652        H  0.86665589  0.26135344  0.08220119     0.16800
H653        H  0.73988122  0.11808493  0.09513237     0.16800
H654        H  0.88076878  0.10982443  0.92746275     0.16900
H655        H  0.72970844  0.09264301  0.93557759     0.16800
C656        C  0.83851802  0.17756525  0.44308442     0.30700
C657        C  0.83384288  0.17296068  0.54946445     0.30700
C658        C  0.85535796  0.14991729  0.46826784    -0.05500
C659        C  0.86303223  0.21949620  0.47107894    -0.06300
C660        C  0.79353650  0.15690546  0.46616872    -0.06200
C661        C  0.85404952  0.14794218  0.52235767    -0.05500
C662        C  0.86244605  0.21827984  0.52465998    -0.06300
C663        C  0.79043390  0.15519022  0.51987522    -0.06200
C664        C  0.87388356  0.12432959  0.53552425    -0.31600
N665        N  0.88493952  0.11131127  0.49158384     0.14900
C666        C  0.87278733  0.12558657  0.45070804    -0.31600
H667        H  0.87690076  0.11856435  0.41131469     0.16900
C668        C  0.88861506  0.26073723  0.53907652    -0.30600
N669        N  0.90145562  0.28593088  0.49595640     0.13600
C670        C  0.88642009  0.26102169  0.45433453    -0.30500
C671        C  0.74661974  0.13222337  0.53090802    -0.30800
N672        N  0.72467224  0.12015077  0.48562447     0.14200
H673        H  0.73185914  0.12345037  0.56878926     0.16800
C674        C  0.75297762  0.13371357  0.44616190    -0.30800
H675        H  0.74453163  0.12620843  0.40612184     0.16800
H676        H  0.89101570  0.27253797  0.41495938     0.16800
H677        H  0.88143872  0.11844522  0.57392283     0.16900
H678        H  0.89710371  0.27274283  0.57776650     0.16800
C679        C  0.66657308  0.33145873  0.04902762     0.30700
C680        C  0.66445112  0.32712060  0.94286782     0.30700
C681        C  0.63799590  0.34662225  0.02075795    -0.05500
C682        C  0.71081828  0.35833519  0.01981847    -0.06300
C683        C  0.65153429  0.28618855  0.02518257    -0.06200
C684        C  0.63603411  0.34256842  0.96740327    -0.05500
C685        C  0.70843029  0.35495533  0.96622635    -0.06300
C686        C  0.64859812  0.28429710  0.97141097    -0.06200
C687        C  0.61048184  0.35800107  0.94860831    -0.31600
N688        N  0.59858917  0.37375473  0.98844764     0.14900
C689        C  0.61490809  0.36717956  0.03275878    -0.31600
H690        H  0.61180147  0.37820978  0.07043922     0.16900
C691        C  0.74904641  0.37633091  0.94516097    -0.30600
N692        N  0.77704083  0.39394335  0.98381213     0.13600
C693        C  0.75496138  0.38255918  0.02947615    -0.30500
C694        C  0.62574905  0.24170781  0.95805140    -0.30800
N695        N  0.61963931  0.21760823  0.00022592     0.14200
H696        H  0.61187535  0.22837522  0.92109147     0.16800
C697        C  0.63513067  0.24393358  0.04177910    -0.30800
H698        H  0.63219367  0.23293953  0.08114541     0.16800
H699        H  0.77057510  0.38918894  0.06651054     0.16800
H700        H  0.60323481  0.36019069  0.90872914     0.16900
H701        H  0.75777974  0.37804773  0.90487936     0.16800
C702        C  0.67109307  0.33877630  0.45088588     0.30700
C703        C  0.66721587  0.33357919  0.55694594     0.30700
C704        C  0.64975875  0.36261915  0.47903713    -0.05500
C705        C  0.64565622  0.29341219  0.47543054    -0.06300
C706        C  0.71522978  0.35950862  0.47978787    -0.06200
C707        C  0.64768589  0.35903345  0.53306397    -0.05500
C708        C  0.64449399  0.29183213  0.52870373    -0.06300
C709        C  0.71232927  0.35704479  0.53354880    -0.06200
C710        C  0.63072306  0.38323141  0.55226818    -0.31600
N711        N  0.62199677  0.40142475  0.51233915     0.14900
C712        C  0.63455469  0.39071644  0.46784747    -0.31600
H713        H  0.63262676  0.40299474  0.43048304     0.16900
C714        C  0.62156564  0.25017761  0.54483828    -0.30600
N715        N  0.60822317  0.22561728  0.50279748     0.13600
C716        C  0.62234666  0.25103357  0.45987540    -0.30500
C717        C  0.75297385  0.37993111  0.55357743    -0.30800
N718        N  0.78125053  0.39393945  0.51410427     0.14200
H719        H  0.76158309  0.38616206  0.59371726     0.16800
C720        C  0.75916162  0.38287940  0.46885329    -0.30800
H721        H  0.77400232  0.39188840  0.43106097     0.16800
H722        H  0.61718112  0.23948394  0.42068892     0.16800
H723        H  0.62555627  0.38821138  0.59212173     0.16900
H724        H  0.61572746  0.23836046  0.58416084     0.16800
O725        O  0.54675558  0.46795412  0.03502638    -0.87700
C726        C  0.57352020  0.06205110  0.92707442     0.88300
Mg727      Mg  0.49434490  0.40279855  0.02666924     1.58100
O728        O  0.52149814  0.06669926  0.04208985    -0.87400
O729        O  0.57192763  0.02042186  0.08977444    -0.74700
C730        C  0.82271312  0.41495364  0.97768838     0.93400
O731        O  0.53393042  0.45495006  0.91195767    -0.74600
O732        O  0.83997258  0.39273979  0.96522167    -0.82100
Mg733      Mg  0.58886887  0.99452327  0.96845713     1.58000
C734        C  0.91556618  0.08884987  0.01361793     0.93300
O735        O  0.65337699  0.03608820  0.00760440    -0.80300
H736        H  0.52025753  0.07568472  0.11785108    -0.05700
C737        C  0.93971478  0.50832038  0.91975221     0.88300
O738        O  0.94991425  0.41498820  0.07977346    -0.74800
O739        O  0.57578429  0.04721517  0.96901697    -0.87600
O740        O  0.95656370  0.10662654  0.01096831    -0.80400
C741        C  0.59397004  0.17184957  0.00006253     0.93400
C742        C  0.67560829  0.07482651  0.02223089     0.93300
Mg743      Mg  0.90743531  0.49547157  0.02946416     1.58000
O744        O  0.84479467  0.45489377  0.98677830    -0.80300
O745        O  0.96167674  0.03517478  0.08692126    -0.74600
O746        O  0.61087620  0.14938752  0.01365143    -0.80400
O747        O  0.60332751  0.44012594  0.97614290    -0.82100
O748        O  0.88488680  0.34285827  0.99032212    -0.80400
C749        C  0.00221345  0.06023020  0.08359222     0.87700
O750        O  0.92150889  0.44365950  0.03079084    -0.87600
O751        O  0.95047457  0.02168093  0.96385007    -0.87700
O752        O  0.92518266  0.46904492  0.90939375    -0.74700
Mg753      Mg  0.58808869  0.08090391  0.04259677     1.58000
O754        O  0.55504137  0.15499512  0.98511460    -0.82100
H755        H  0.55424286  0.45894347  0.10937174    -0.05800
O756        O  0.97491670  0.42323854  0.95799755    -0.87400
H757        H  0.97504586  0.41385104  0.88223335    -0.05700
H758        H  0.90541793  0.43050565  0.10515312    -0.05900
C759        C  0.49356617  0.42955137  0.91612522     0.87700
C760        C  0.55773012  0.98125315  0.07910303     0.88300
C761        C  0.92430364  0.42948644  0.07300487     0.88300
H762        H  0.94353063  0.03059521  0.88928961    -0.05800
O763        O  0.54758667  0.07611469  0.92020648    -0.74900
Mg764      Mg  0.90899778  0.40937393  0.95821383     1.58000
H765        H  0.59311066  0.06191539  0.89519574    -0.05800
C766        C  0.57910803  0.39992488  0.98307425     0.93300
O767        O  0.94000466  0.33453650  0.01468076    -0.82100
C768        C  0.90066344  0.31921100  0.00195873     0.93400
O769        O  0.65829138  0.09671190  0.03698473    -0.82100
Mg770      Mg  0.00193134  0.08684734  0.97272758     1.58200
O771        O  0.53820979  0.38235988  0.98661881    -0.80400
O772        O  0.89161462  0.04868972  0.02042517    -0.82100
O773        O  0.52650911  0.45435298  0.46507023    -0.87700
C774        C  0.94183983  0.43828244  0.58348490     0.88300
Mg775      Mg  0.59272825  0.50459259  0.46374220     1.58100
O776        O  0.92761769  0.48238597  0.46776283    -0.87400
O777        O  0.96861733  0.42817045  0.41813134    -0.74700
C778        C  0.58747480  0.18023426  0.50486083     0.93400
O779        O  0.54983894  0.47608275  0.58724637    -0.74600
O780        O  0.60985929  0.16285652  0.51623561    -0.82100
Mg781      Mg  0.00523466  0.41863819  0.53769482     1.58000
C782        C  0.91004992  0.09042954  0.48825546     0.93300
O783        O  0.96096955  0.35363136  0.50389113    -0.80300
H784        H  0.90987013  0.47591837  0.39404462    -0.05700
C785        C  0.49879238  0.07094499  0.57766163     0.88300
O786        O  0.57897811  0.04755037  0.41019382    -0.74800
O787        O  0.95382210  0.43384647  0.54055412    -0.87600
O788        O  0.89306338  0.05171798  0.50327765    -0.80400
C789        C  0.82698534  0.41718338  0.51976818     0.93400
C790        C  0.92100710  0.33137064  0.49410585     0.93300
Mg791      Mg  0.50141317  0.09350435  0.46339823     1.58000
O792        O  0.54733091  0.15878275  0.49562704    -0.80300
O793        O  0.95575252  0.03614420  0.41415832    -0.74600
O794        O  0.84829904  0.39788348  0.51153702    -0.80400
O795        O  0.55815193  0.40145757  0.53099489    -0.82100
O796        O  0.65677605  0.11386158  0.48576288    -0.80400
C797        C  0.92969266  0.99703912  0.42429371     0.87700
O798        O  0.55222094  0.07739766  0.45975959    -0.87600
O799        O  0.98075582  0.05771073  0.53601882    -0.87700
O800        O  0.53872599  0.08387892  0.58275643    -0.74700
Mg801      Mg  0.91315455  0.41678316  0.47286774     1.58000
O802        O  0.84500155  0.45665433  0.53128312    -0.82100
H803        H  0.52752924  0.44201467  0.39026763    -0.05800
O804        O  0.57883613  0.02937591  0.53299706    -0.87400
H805        H  0.59578125  0.03635901  0.60702069    -0.05700
H806        H  0.56206107  0.09070300  0.38446876    -0.05900
C807        C  0.57624876  0.51502505  0.57676596     0.87700
C808        C  0.00857148  0.44124071  0.42334392     0.88300
C809        C  0.56444010  0.07304617  0.41692059     0.88300
H810        H  0.97994083  0.07036271  0.61074991    -0.05800
O811        O  0.92799631  0.46427388  0.59057330    -0.74900
Mg812      Mg  0.59341679  0.09466116  0.52705867     1.58000
H813        H  0.94407507  0.42041513  0.61579755    -0.05800
C814        C  0.59724670  0.42262498  0.51567803     0.93300
O815        O  0.66211511  0.05566427  0.47053614    -0.82100
C816        C  0.67908392  0.09541042  0.48002543     0.93400
O817        O  0.89768872  0.34801350  0.48330134    -0.82100
Mg818      Mg  0.91447309  0.00749732  0.53764012     1.58200
O819        O  0.61418815  0.46106632  0.49972384    -0.80400
O820        O  0.94899429  0.11157727  0.47227546    -0.82100
C821        C  0.66826887  0.35969362  0.80075140    -0.11200
C822        C  0.65683198  0.32052545  0.77738641     0.11400
C823        C  0.65469324  0.28630178  0.80636139    -0.03000
C824        C  0.66391511  0.29289827  0.85846055    -0.05800
C825        C  0.66658046  0.32852421  0.88430977    -0.16500
C826        C  0.67414908  0.36510811  0.85388785     0.02400
C827        C  0.65638493  0.31984349  0.72143321     0.12300
C828        C  0.64418423  0.24303340  0.78399006     0.63000
H829        H  0.66991393  0.27001567  0.87834374     0.12400
C830        C  0.69131723  0.41128021  0.87205773     0.55100
H831        H  0.67393936  0.38688368  0.77673377     0.08200
C832        C  0.62244967  0.31905347  0.69319801    -0.05600
C833        C  0.62658336  0.32184564  0.63970509    -0.06400
C834        C  0.66360614  0.32591333  0.61454043    -0.16000
C835        C  0.69104632  0.31507174  0.64313800    -0.01600
C836        C  0.68990042  0.31742198  0.69649101    -0.09100
C837        C  0.58187368  0.31397276  0.71933470     0.65200
H838        H  0.60016997  0.31958548  0.61720378     0.10600
C839        C  0.71793477  0.29582728  0.62242735     0.63600
H840        H  0.71349775  0.31399199  0.71920349     0.08000
F841        F  0.66256049  0.42491743  0.85837354    -0.19500
F842        F  0.73039806  0.43750668  0.84743504    -0.15700
F843        F  0.69845079  0.41759759  0.92408144    -0.19200
F844        F  0.68202278  0.24168239  0.77717130    -0.22600
F845        F  0.62289268  0.23496766  0.73749797    -0.24100
F846        F  0.61743274  0.21038704  0.81762238    -0.18100
F847        F  0.76099884  0.32216723  0.63464787    -0.20500
F848        F  0.71479894  0.28862811  0.57019037    -0.21700
F849        F  0.70379725  0.25632611  0.64604627    -0.18900
F850        F  0.55104700  0.30965835  0.68397753    -0.19000
F851        F  0.59190748  0.34951319  0.74918976    -0.22800
F852        F  0.56387756  0.27762921  0.75033085    -0.24400
C853        C  0.69523343  0.32604560  0.30522042    -0.11200
C854        C  0.66796496  0.33743092  0.27903710     0.11400
C855        C  0.63978560  0.34610648  0.30895146    -0.03000
C856        C  0.64157168  0.34502310  0.36334927    -0.05800
C857        C  0.67146083  0.33740135  0.39048530    -0.16500
C858        C  0.69620090  0.32373067  0.35980718     0.02400
C859        C  0.66775324  0.33731148  0.22058297     0.12300
C860        C  0.60713307  0.35588062  0.28384845     0.63000
H861        H  0.61673702  0.34696444  0.38475152     0.12400
C862        C  0.72228175  0.30368248  0.38011478     0.55100
H863        H  0.71495849  0.31693679  0.28236364     0.08200
C864        C  0.70079332  0.37053840  0.19041016    -0.05600
C865        C  0.69852316  0.36792471  0.13585076    -0.06400
C866        C  0.66434614  0.33347096  0.10927442    -0.16000
C867        C  0.62818857  0.30369464  0.14048627    -0.01600
C868        C  0.63245997  0.30430698  0.19475863    -0.09100
C869        C  0.73796089  0.40922898  0.21591894     0.65200
H870        H  0.72271350  0.39451423  0.11383799     0.10600
C871        C  0.58281898  0.27250137  0.12138355     0.63600
H872        H  0.60647683  0.27947857  0.21767697     0.08000
F873        F  0.76565855  0.33075779  0.36918852    -0.19500
F874        F  0.70912645  0.26501997  0.35537233    -0.15700
F875        F  0.71756962  0.29478272  0.43203689    -0.19200
F876        F  0.57514141  0.31940390  0.26052760    -0.22600
F877        F  0.62744729  0.38811788  0.24736179    -0.24100
F878        F  0.58740074  0.36944656  0.31941243    -0.18100
F879        F  0.57245527  0.23080283  0.13324302    -0.20500
F880        F  0.57699228  0.27510138  0.06948618    -0.21700
F881        F  0.55360821  0.28110006  0.14653919    -0.18900
F882        F  0.76497191  0.43973354  0.18026654    -0.19000
F883        F  0.76245027  0.39637016  0.24398986    -0.22800
F884        F  0.72189202  0.42849759  0.24854635    -0.24400
C885        C  0.79371346  0.15916881  0.80713869    -0.11200
C886        C  0.82872602  0.16173012  0.77907488     0.11400
C887        C  0.86596388  0.16938756  0.80696424    -0.03000
C888        C  0.86396415  0.16690477  0.86161751    -0.05800
C889        C  0.82776332  0.16168010  0.89055491    -0.16500
C890        C  0.79436534  0.16345620  0.86148601     0.02400
C891        C  0.82774257  0.16273785  0.72069529     0.12300
C892        C  0.90886454  0.18416251  0.77930839     0.63000
H893        H  0.89247849  0.17236435  0.88210657     0.12400
C894        C  0.76096797  0.17430159  0.88274349     0.55100
H895        H  0.76686428  0.15750496  0.78574045     0.08200
C896        C  0.81911525  0.12690076  0.68965386    -0.05600
C897        C  0.82186729  0.13169410  0.63509648    -0.06400
C898        C  0.82873240  0.16971734  0.60975032    -0.16000
C899        C  0.82594925  0.20077376  0.64201955    -0.01600
C900        C  0.83021856  0.19880272  0.69604935    -0.09100
C901        C  0.80306927  0.08286333  0.71399566     0.65200
H902        H  0.81600992  0.10446157  0.61181631     0.10600
C903        C  0.81246977  0.23293642  0.62443844     0.63600
H904        H  0.83174779  0.22431543  0.71988019     0.08000
F905        F  0.71982714  0.13965074  0.87646161    -0.19500
F906        F  0.76372188  0.20870246  0.85513902    -0.15700
F907        F  0.76660389  0.18615341  0.93367306    -0.19200
F908        F  0.91982567  0.22125987  0.75159599    -0.22600
F909        F  0.90602098  0.15306284  0.74583968    -0.24100
F910        F  0.94201003  0.19319128  0.81338950    -0.18100
F911        F  0.77661232  0.22623696  0.65284032    -0.20500
F912        F  0.80094171  0.22907812  0.57338489    -0.21700
F913        F  0.84530799  0.27439473  0.63364839    -0.18900
F914        F  0.79478249  0.05174570  0.67743217    -0.19000
F915        F  0.76501091  0.07100911  0.74071287    -0.22800
F916        F  0.83308705  0.08349875  0.74785114    -0.24400
C917        C  0.88055157  0.20996324  0.19142518    -0.11200
C918        C  0.84771124  0.17857133  0.22203222     0.11400
C919        C  0.81510936  0.14044848  0.19993907    -0.03000
C920        C  0.81435894  0.13700119  0.14642538    -0.05800
C921        C  0.84400672  0.17085683  0.11465065    -0.16500
C922        C  0.88173653  0.20486753  0.13828050     0.02400
C923        C  0.85003506  0.18477992  0.27772337     0.12300
C924        C  0.78144291  0.10363576  0.23271572     0.63000
H925        H  0.79123213  0.10697385  0.12942888     0.12400
C926        C  0.92547642  0.23465289  0.11269107     0.55100
H927        H  0.90674721  0.23784853  0.20967366     0.08200
C928        C  0.88022480  0.18010496  0.30777832    -0.05600
C929        C  0.87794215  0.18334087  0.36094268    -0.06400
C930        C  0.84312667  0.18459233  0.38498204    -0.16000
C931        C  0.81859215  0.19799248  0.35431057    -0.01600
C932        C  0.82141329  0.19587137  0.30073042    -0.09100
C933        C  0.91363945  0.17025861  0.28450215     0.65200
H934        H  0.90388590  0.18520849  0.38398060     0.10600
C935        C  0.79154484  0.21751304  0.37347101     0.63600
H936        H  0.80115374  0.20310370  0.27638605     0.08000
F937        F  0.95649406  0.22775322  0.13561683    -0.19500
F938        F  0.93666833  0.27709770  0.12059194    -0.15700
F939        F  0.92749077  0.22864803  0.06067117    -0.19200
F940        F  0.75532728  0.11644715  0.25752443    -0.22600
F941        F  0.80163481  0.09148550  0.26900674    -0.24100
F942        F  0.75518579  0.06792474  0.20343857    -0.18100
F943        F  0.80522452  0.25639592  0.34850343    -0.20500
F944        F  0.79476066  0.22586597  0.42544923    -0.21700
F945        F  0.74853058  0.19051151  0.36157406    -0.18900
F946        F  0.93554538  0.16132369  0.32205387    -0.19000
F947        F  0.94379201  0.20504710  0.25610083    -0.22800
F948        F  0.89356122  0.13474148  0.25296431    -0.24400
C949        C  0.83632252  0.66687270  0.05681652     0.30700
C950        C  0.82990501  0.66095662  0.95090782     0.30700
C951        C  0.86404514  0.65153129  0.03011423    -0.05500
C952        C  0.79098629  0.63609393  0.03596428    -0.06300
C953        C  0.84630493  0.70769115  0.02851696    -0.06200
C954        C  0.86132268  0.64782787  0.97658745    -0.05500
C955        C  0.78767267  0.63131767  0.98229412    -0.06300
C956        C  0.84525328  0.70590906  0.97502163    -0.08600
C957        C  0.88040398  0.62311038  0.96468108    -0.31600
N958        N  0.89591712  0.61495893  0.00869633     0.14900
C959        C  0.88548111  0.63159635  0.04876671    -0.31600
H960        H  0.89053710  0.62695641  0.08879750     0.16900
C961        C  0.74426423  0.60365962  0.97280153    -0.30600
N962        N  0.72167107  0.59534117  0.01788334     0.13600
C963        C  0.74957872  0.61610235  0.05614690    -0.30500
C964        C  0.86334726  0.74821972  0.95853956    -0.30800
N965        N  0.87321062  0.77384533  0.00076052     0.14200
H966        H  0.87134794  0.75969376  0.91921449     0.16800
C967        C  0.86146838  0.74922388  0.04334154    -0.30800
H968        H  0.86665552  0.76135321  0.08220125     0.16800
H969        H  0.73988117  0.61808498  0.09513225     0.16800
H970        H  0.88076850  0.60982446  0.92746268     0.16900
H971        H  0.72970839  0.59264309  0.93557756     0.16800
C972        C  0.83851792  0.67756530  0.44308434     0.30700
C973        C  0.83384272  0.67296072  0.54946437     0.30700
C974        C  0.85535784  0.64991733  0.46826782    -0.05500
C975        C  0.86303214  0.71949624  0.47107884    -0.06300
C976        C  0.79353641  0.65690561  0.46616862    -0.06200
C977        C  0.85404940  0.64794222  0.52235765    -0.05500
C978        C  0.86244595  0.71827990  0.52465989    -0.06300
C979        C  0.79043376  0.65519027  0.51987510    -0.06200
C980        C  0.87388343  0.62432962  0.53552423    -0.31600
N981        N  0.88493941  0.61131129  0.49158383     0.14900
C982        C  0.87278724  0.62558663  0.45070804    -0.31600
H983        H  0.87690070  0.61856444  0.41131469     0.16900
C984        C  0.88861510  0.76073730  0.53907630    -0.30600
N985        N  0.90145579  0.78593090  0.49595620     0.13600
C986        C  0.88642008  0.76102168  0.45433435    -0.30500
C987        C  0.74661956  0.63222336  0.53090786    -0.30800
N988        N  0.72467215  0.62015094  0.48562424     0.14200
H989        H  0.73185891  0.62345023  0.56878893     0.16800
C990        C  0.75297755  0.63371388  0.44616168    -0.30800
H991        H  0.74453158  0.62620883  0.40612175     0.16800
H992        H  0.89101563  0.77253790  0.41495918     0.16800
H993        H  0.88143857  0.61844522  0.57392287     0.16900
H994        H  0.89710379  0.77274301  0.57776640     0.16800
C995        C  0.66657303  0.83145896  0.04902747     0.30700
C996        C  0.66445101  0.82712061  0.94286768     0.30700
C997        C  0.63799584  0.84662239  0.02075771    -0.05500
C998        C  0.71081821  0.85833544  0.01981833    -0.06300
C999        C  0.65153430  0.78618874  0.02518256    -0.06200
C1000       C  0.63603394  0.84256838  0.96740307    -0.05500
C1001       C  0.70843019  0.85495547  0.96622622    -0.06300
C1002       C  0.64859810  0.78429718  0.97141098    -0.06200
C1003       C  0.61048161  0.85800094  0.94860808    -0.31600
N1004       N  0.59858904  0.87375474  0.98844738     0.14900
C1005       C  0.61490808  0.86717974  0.03275853    -0.31600
H1006       H  0.61180154  0.87821003  0.07043888     0.16900
C1007       C  0.74904630  0.87633112  0.94516077    -0.30600
N1008       N  0.77704074  0.89394357  0.98381201     0.13600
C1009       C  0.75496127  0.88255944  0.02947596    -0.30500
C1010       C  0.62574906  0.74170785  0.95805147    -0.30800
N1011       N  0.61963951  0.71760836  0.00022604     0.14200
H1012       H  0.61187528  0.72837524  0.92109176     0.16800
C1013       C  0.63513076  0.74393377  0.04177919    -0.30800
H1014       H  0.63219378  0.73293979  0.08114547     0.16800
H1015       H  0.77057503  0.88918922  0.06651056     0.16800
H1016       H  0.60323454  0.86019047  0.90872891     0.16900
H1017       H  0.75777960  0.87804795  0.90487934     0.16800
C1018       C  0.67109294  0.83877625  0.45088582     0.30700
C1019       C  0.66721574  0.83357913  0.55694588     0.30700
C1020       C  0.64975863  0.86261912  0.47903701    -0.05500
C1021       C  0.64565615  0.79341213  0.47543045    -0.06300
C1022       C  0.71522965  0.85950860  0.47978786    -0.06200
C1023       C  0.64768578  0.85903341  0.53306384    -0.05500
C1024       C  0.64449391  0.79183206  0.52870362    -0.06300
C1025       C  0.71232916  0.85704480  0.53354880    -0.06200
C1026       C  0.63072303  0.88323143  0.55226807    -0.31600
N1027       N  0.62199672  0.90142478  0.51233896     0.14900
C1028       C  0.63455460  0.89071644  0.46784736    -0.31600
H1029       H  0.63262663  0.90299476  0.43048272     0.16900
C1030       C  0.62156564  0.75017749  0.54483810    -0.30600
N1031       N  0.60822319  0.72561718  0.50279730     0.13600
C1032       C  0.62234674  0.75103351  0.45987529    -0.30500
C1033       C  0.75297379  0.87993110  0.55357739    -0.30800
N1034       N  0.78125043  0.89393942  0.51410419     0.14200
H1035       H  0.76158308  0.88616198  0.59371722     0.16800
C1036       C  0.75916148  0.88287931  0.46885322    -0.30800
H1037       H  0.77400210  0.89188820  0.43106097     0.16800
H1038       H  0.61718134  0.73948391  0.42068869     0.16800
H1039       H  0.62555630  0.88821143  0.59212144     0.16900
H1040       H  0.61572747  0.73836027  0.58416064     0.16800
O1041       O  0.54675558  0.96795412  0.03502630    -0.87700
C1042       C  0.57352037  0.56205121  0.92707453     0.88300
Mg1043     Mg  0.49434502  0.90279858  0.02666904     1.58100
O1044       O  0.52149822  0.56669937  0.04208999    -0.87400
O1045       O  0.57192764  0.52042196  0.08977441    -0.74700
C1046       C  0.82271300  0.91495373  0.97768818     0.93400
O1047       O  0.53393040  0.95495007  0.91195767    -0.74600
O1048       O  0.83997240  0.89273980  0.96522153    -0.82100
Mg1049     Mg  0.58886882  0.49452324  0.96845713     1.58000
C1050       C  0.91556599  0.58884977  0.01361765     0.93300
O1051       O  0.65337692  0.53608817  0.00760442    -0.80300
H1052       H  0.52025741  0.57568463  0.11785119    -0.05700
C1053       C  0.93971498  0.00832058  0.91975223     0.88300
O1054       O  0.94991415  0.91498821  0.07977346    -0.74800
O1055       O  0.57578429  0.54721519  0.96901708    -0.87600
O1056       O  0.95656353  0.60662644  0.01096829    -0.80400
C1057       C  0.59397021  0.67184969  0.00006260     0.93400
C1058       C  0.67560823  0.57482653  0.02223076     0.93300
Mg1059     Mg  0.90743528  0.99547153  0.02946412     1.58000
O1060       O  0.84479465  0.95489390  0.98677794    -0.80300
O1061       O  0.96167684  0.53517507  0.08692119    -0.74600
O1062       O  0.61087632  0.64938758  0.01365143    -0.80400
O1063       O  0.60332763  0.94012609  0.97614317    -0.82100
O1064       O  0.88488671  0.84285826  0.99032213    -0.80400
C1065       C  0.00221355  0.56023036  0.08359205     0.87700
O1066       O  0.92150881  0.94365943  0.03079064    -0.87600
O1067       O  0.95047447  0.52168082  0.96385000    -0.87700
O1068       O  0.92518292  0.96904514  0.90939362    -0.74700
Mg1069     Mg  0.58808874  0.58090398  0.04259679     1.58000
O1070       O  0.55504155  0.65499528  0.98511463    -0.82100
H1071       H  0.55424265  0.95894326  0.10937174    -0.05800
O1072       O  0.97491659  0.92323835  0.95799751    -0.87400
H1073       H  0.97504582  0.91385106  0.88223325    -0.05700
H1074       H  0.90541761  0.93050547  0.10515285    -0.05900
C1075       C  0.49356614  0.92955144  0.91612522     0.87700
C1076       C  0.55773019  0.48125322  0.07910309     0.88300
C1077       C  0.92430348  0.92948635  0.07300469     0.88300
H1078       H  0.94353036  0.53059492  0.88928951    -0.05800
O1079       O  0.54758691  0.57611491  0.92020658    -0.74900
Mg1080     Mg  0.90899770  0.90937390  0.95821365     1.58000
H1081       H  0.59311078  0.56191541  0.89519597    -0.05800
C1082       C  0.57910804  0.89992499  0.98307398     0.93300
O1083       O  0.94000453  0.83453644  0.01468091    -0.82100
C1084       C  0.90066331  0.81921097  0.00195886     0.93400
O1085       O  0.65829134  0.59671196  0.03698449    -0.82100
Mg1086     Mg  0.00193124  0.58684723  0.97272752     1.58200
O1087       O  0.53820976  0.88236004  0.98661797    -0.80400
O1088       O  0.89161444  0.54868960  0.02042482    -0.82100
O1089       O  0.52650908  0.95435313  0.46507023    -0.87700
C1090       C  0.94183970  0.93828223  0.58348475     0.88300
Mg1091     Mg  0.59272821  0.00459268  0.46374220     1.58100
O1092       O  0.92761764  0.98238594  0.46776276    -0.87400
O1093       O  0.96861745  0.92817047  0.41813122    -0.74700
C1094       C  0.58747479  0.68023412  0.50486078     0.93400
O1095       O  0.54983891  0.97608283  0.58724641    -0.74600
O1096       O  0.60985936  0.66285642  0.51623517    -0.82100
Mg1097     Mg  0.00523468  0.91863816  0.53769483     1.58000
C1098       C  0.91004983  0.59042959  0.48825537     0.93300
O1099       O  0.96096972  0.85363137  0.50389106    -0.80300
H1100       H  0.90987013  0.97591850  0.39404462    -0.05700
C1101       C  0.49879251  0.57094487  0.57766184     0.88300
O1102       O  0.57897808  0.54755019  0.41019378    -0.74800
O1103       O  0.95382212  0.93384642  0.54055400    -0.87600
O1104       O  0.89306335  0.55171805  0.50327765    -0.80400
C1105       C  0.82698526  0.91718337  0.51976797     0.93400
C1106       C  0.92100730  0.83137066  0.49410563     0.93300
Mg1107     Mg  0.50141318  0.59350430  0.46339853     1.58000
O1108       O  0.54733076  0.65878258  0.49562778    -0.80300
O1109       O  0.95575244  0.53614416  0.41415829    -0.74600
O1110       O  0.84829898  0.89788351  0.51153659    -0.80400
O1111       O  0.55815190  0.90145761  0.53099487    -0.82100
O1112       O  0.65677587  0.61386154  0.48576179    -0.80400
C1113       C  0.92969269  0.49703909  0.42429376     0.87700
O1114       O  0.55222084  0.57739743  0.45975954    -0.87600
O1115       O  0.98075588  0.55771093  0.53601862    -0.87700
O1116       O  0.53872618  0.58387887  0.58275641    -0.74700
Mg1117     Mg  0.91315461  0.91678317  0.47286756     1.58000
O1118       O  0.84500147  0.95665428  0.53128306    -0.82100
H1119       H  0.52752924  0.94201467  0.39026760    -0.05800
O1120       O  0.57883632  0.52937588  0.53299708    -0.87400
H1121       H  0.59578135  0.53635884  0.60702071    -0.05700
H1122       H  0.56206075  0.59070263  0.38446852    -0.05900
C1123       C  0.57624863  0.01502512  0.57676593     0.87700
C1124       C  0.00857160  0.94124066  0.42334389     0.88300
C1125       C  0.56443992  0.57304585  0.41692055     0.88300
H1126       H  0.97994080  0.57036300  0.61074960    -0.05800
O1127       O  0.92799606  0.96427357  0.59057312    -0.74900
Mg1128     Mg  0.59341693  0.59466113  0.52705846     1.58000
H1129       H  0.94407481  0.92041480  0.61579738    -0.05800
C1130       C  0.59724664  0.92262500  0.51567798     0.93300
O1131       O  0.66211518  0.55566424  0.47053617    -0.82100
C1132       C  0.67908386  0.59541044  0.48002504     0.93400
O1133       O  0.89768892  0.84801354  0.48330119    -0.82100
Mg1134     Mg  0.91447317  0.50749747  0.53764013     1.58200
O1135       O  0.61418811  0.96106637  0.49972383    -0.80400
O1136       O  0.94899415  0.61157729  0.47227516    -0.82100
C1137       C  0.66826841  0.85969324  0.80075114    -0.11200
C1138       C  0.65683162  0.82052505  0.77738630     0.11400
C1139       C  0.65469310  0.78630156  0.80636144    -0.03000
C1140       C  0.66391499  0.79289817  0.85846056    -0.05800
C1141       C  0.66658034  0.82852413  0.88430963    -0.16500
C1142       C  0.67414881  0.86510792  0.85388751     0.02400
C1143       C  0.65638449  0.81984297  0.72143311     0.12300
C1144       C  0.64418392  0.74303304  0.78399059     0.63000
H1145       H  0.66991379  0.77001555  0.87834390     0.12400
C1146       C  0.69131677  0.91128003  0.87205718     0.55100
H1147       H  0.67393867  0.88688323  0.77673341     0.08200
C1148       C  0.62244929  0.81905311  0.69319787    -0.05600
C1149       C  0.62658311  0.82184542  0.63970497    -0.06400
C1150       C  0.66360591  0.82591314  0.61454034    -0.16000
C1151       C  0.69104603  0.81507144  0.64313791    -0.01600
C1152       C  0.68989993  0.81742140  0.69649090    -0.09100
C1153       C  0.58187329  0.81397252  0.71933449     0.65200
H1154       H  0.60016979  0.81958546  0.61720357     0.10600
C1155       C  0.71793454  0.79582708  0.62242724     0.63600
H1156       H  0.71349723  0.81399116  0.71920343     0.08000
F1157       F  0.66255979  0.92491705  0.85837324    -0.19500
F1158       F  0.73039744  0.93750668  0.84743427    -0.15700
F1159       F  0.69845058  0.91759742  0.92408082    -0.19200
F1160       F  0.68202220  0.74168115  0.77717403    -0.22600
F1161       F  0.62289393  0.73496766  0.73749748    -0.24100
F1162       F  0.61743095  0.71038697  0.81762236    -0.18100
F1163       F  0.76099858  0.82216689  0.63464816    -0.20500
F1164       F  0.71479895  0.78862816  0.57019022    -0.21700
F1165       F  0.70379679  0.75632576  0.64604588    -0.18900
F1166       F  0.55104663  0.80965805  0.68397724    -0.19000
F1167       F  0.59190713  0.84951309  0.74918933    -0.22800
F1168       F  0.56387714  0.77762904  0.75033078    -0.24400
C1169       C  0.69523331  0.82604565  0.30522036    -0.11200
C1170       C  0.66796481  0.83743093  0.27903702     0.11400
C1171       C  0.63978545  0.84610648  0.30895143    -0.03000
C1172       C  0.64157149  0.84502301  0.36334922    -0.05800
C1173       C  0.67146063  0.83740125  0.39048526    -0.16500
C1174       C  0.69620076  0.82373065  0.35980711     0.02400
C1175       C  0.66775307  0.83731153  0.22058286     0.12300
C1176       C  0.60713298  0.85588064  0.28384837     0.63000
H1177       H  0.61673669  0.84696430  0.38475157     0.12400
C1178       C  0.72228171  0.80368256  0.38011465     0.55100
H1179       H  0.71495843  0.81693691  0.28236353     0.08200
C1180       C  0.70079315  0.87053854  0.19041008    -0.05600
C1181       C  0.69852297  0.86792495  0.13585068    -0.06400
C1182       C  0.66434601  0.83347125  0.10927425    -0.16000
C1183       C  0.62818846  0.80369486  0.14048604    -0.01600
C1184       C  0.63245980  0.80430709  0.19475842    -0.09100
C1185       C  0.73796069  0.90922910  0.21591894     0.65200
H1186       H  0.72271335  0.89451455  0.11383793     0.10600
C1187       C  0.58281893  0.77250163  0.12138326     0.63600
H1188       H  0.60647664  0.77947861  0.21767673     0.08000
F1189       F  0.76565852  0.83075803  0.36918848    -0.19500
F1190       F  0.70912649  0.76502010  0.35537204    -0.15700
F1191       F  0.71756956  0.79478273  0.43203674    -0.19200
F1192       F  0.57514138  0.81940398  0.26052734    -0.22600
F1193       F  0.62744727  0.88811795  0.24736181    -0.24100
F1194       F  0.58740065  0.86944655  0.31941237    -0.18100
F1195       F  0.57245529  0.73080308  0.13324262    -0.20500
F1196       F  0.57699214  0.77510171  0.06948589    -0.21700
F1197       F  0.55360824  0.78110031  0.14653911    -0.18900
F1198       F  0.76497163  0.93973381  0.18026661    -0.19000
F1199       F  0.76245018  0.89637023  0.24398953    -0.22800
F1200       F  0.72189176  0.92849753  0.24854661    -0.24400
C1201       C  0.79371332  0.65916884  0.80713853    -0.11200
C1202       C  0.82872591  0.66173020  0.77907473     0.11400
C1203       C  0.86596380  0.66938777  0.80696409    -0.03000
C1204       C  0.86396405  0.66690491  0.86161735    -0.05800
C1205       C  0.82776321  0.66168016  0.89055478    -0.16500
C1206       C  0.79436525  0.66345627  0.86148588     0.02400
C1207       C  0.82774243  0.66273787  0.72069513     0.12300
C1208       C  0.90886442  0.68416260  0.77930822     0.63000
H1209       H  0.89247840  0.67236445  0.88210644     0.12400
C1210       C  0.76096792  0.67430167  0.88274339     0.55100
H1211       H  0.76686418  0.65750496  0.78574034     0.08200
C1212       C  0.81911499  0.62690074  0.68965368    -0.05600
C1213       C  0.82186688  0.63169404  0.63509634    -0.06400
C1214       C  0.82873213  0.66971730  0.60975019    -0.16000
C1215       C  0.82594915  0.70077383  0.64201944    -0.01600
C1216       C  0.83021852  0.69880279  0.69604923    -0.09100
C1217       C  0.80306902  0.58286335  0.71399549     0.65200
H1218       H  0.81600939  0.60446135  0.61181605     0.10600
C1219       C  0.81246980  0.73293662  0.62443841     0.63600
H1220       H  0.83174785  0.72431551  0.71988005     0.08000
F1221       F  0.71982711  0.63965081  0.87646139    -0.19500
F1222       F  0.76372184  0.70870254  0.85513895    -0.15700
F1223       F  0.76660390  0.68615359  0.93367295    -0.19200
F1224       F  0.91982542  0.72125963  0.75159518    -0.22600
F1225       F  0.90602081  0.65306256  0.74584009    -0.24100
F1226       F  0.94200998  0.69319188  0.81338941    -0.18100
F1227       F  0.77661240  0.72623728  0.65284031    -0.20500
F1228       F  0.80094179  0.72907844  0.57338485    -0.21700
F1229       F  0.84530807  0.77439488  0.63364841    -0.18900
F1230       F  0.79478244  0.55174572  0.67743208    -0.19000
F1231       F  0.76501050  0.57100909  0.74071232    -0.22800
F1232       F  0.83308667  0.58349879  0.74785121    -0.24400
C1233       C  0.88055144  0.70996307  0.19142513    -0.11200
C1234       C  0.84771108  0.67857108  0.22203214     0.11400
C1235       C  0.81510918  0.64044828  0.19993897    -0.03000
C1236       C  0.81435876  0.63700106  0.14642526    -0.05800
C1237       C  0.84400661  0.67085672  0.11465057    -0.16500
C1238       C  0.88173638  0.70486739  0.13828042     0.02400
C1239       C  0.85003484  0.68477964  0.27772327     0.12300
C1240       C  0.78144274  0.60363544  0.23271556     0.63000
H1241       H  0.79123204  0.60697385  0.12942881     0.12400
C1242       C  0.92547627  0.73465276  0.11269098     0.55100
H1243       H  0.90674703  0.73784828  0.20967357     0.08200
C1244       C  0.88022458  0.68010472  0.30777822    -0.05600
C1245       C  0.87794204  0.68334082  0.36094261    -0.06400
C1246       C  0.84312656  0.68459235  0.38498193    -0.16000
C1247       C  0.81859203  0.69799242  0.35431042    -0.01600
C1248       C  0.82141310  0.69587116  0.30073026    -0.09100
C1249       C  0.91363920  0.67025827  0.28450209     0.65200
H1250       H  0.90388569  0.68520851  0.38398042     0.10600
C1251       C  0.79154491  0.71751320  0.37347076     0.63600
H1252       H  0.80115359  0.70310350  0.27638588     0.08000
F1253       F  0.95649389  0.72775297  0.13561657    -0.19500
F1254       F  0.93666820  0.77709755  0.12059198    -0.15700
F1255       F  0.92749066  0.72864804  0.06067105    -0.19200
F1256       F  0.75532732  0.61644683  0.25752476    -0.22600
F1257       F  0.80163469  0.59148492  0.26900622    -0.24100
F1258       F  0.75518540  0.56792458  0.20343826    -0.18100
F1259       F  0.80522475  0.75639601  0.34850299    -0.20500
F1260       F  0.79476081  0.72586631  0.42544893    -0.21700
F1261       F  0.74853060  0.69051179  0.36157396    -0.18900
F1262       F  0.93554516  0.66132343  0.32205386    -0.19000
F1263       F  0.94379171  0.70504659  0.25610053    -0.22800
F1264       F  0.89356094  0.63474109  0.25296435    -0.24400
loop_ 
_geom_bond_atom_site_label_1 
_geom_bond_atom_site_label_2 
_geom_bond_distance 
_geom_bond_site_symmetry_2 
_ccdc_geom_bond_type 
C1            C3   1.514       .  S
C1            C5   1.510       .  S
C1            C4   1.537       .  S
C1          C289   1.523       .  S
C2            C6   1.565       .  S
C2            C8   1.556       .  S
C2            C7   1.565       .  S
C2          C257   1.571       .  S
C3           C11   1.368       .  A
C3            C6   1.397   1_554  A
C4           C15   1.379       .  A
C4            C7   1.404   1_554  A
C5           C19   1.365       .  A
C5            C8   1.391   1_554  A
C6            C9   1.392       .  A
C7           C13   1.385       .  A
C8           C16   1.386       .  A
C9           N10   1.365   1_556  A
C9           H22   1.082       .  S
N10          C11   1.340       .  A
N10         C102   1.425       .  S
C11          H12   1.083       .  S
C13          N14   1.362   1_556  A
C13          H23   1.079       .  S
N14          C15   1.346       .  A
N14         C110   1.429       .  S
C15          H21   1.082       .  S
C16          N17   1.364   1_556  A
C16          H18   1.082       .  S
N17          C19   1.341       .  A
N17         C136   1.422       .  S
C19          H20   1.081       .  S
C24          C26   1.536       .  S
C24          C28   1.510       .  S
C24          C27   1.504       .  S
C24         C298   1.524       .  S
C25          C29   1.567       .  S
C25          C31   1.557       .  S
C25          C30   1.560       .  S
C25         C266   1.573       .  S
C26          C34   1.375       .  A
C26          C29   1.406       .  A
C27          C38   1.363       .  A
C27          C30   1.392       .  A
C28          C42   1.366       .  A
C28          C31   1.398       .  A
C29          C32   1.388       .  A
C30          C36   1.387       .  A
C31          C39   1.383       .  A
C32          N33   1.362       .  A
C32          H45   1.082       .  S
N33          C34   1.341       .  A
N33         C150   1.425       .  S
C34          H35   1.081       .  S
C36          N37   1.363       .  A
C36          H46   1.079       .  S
N37          C38   1.338       .  A
N37         C158   1.418       .  S
C38          H44   1.083       .  S
C39          N40   1.364       .  A
C39          H41   1.082       .  S
N40          C42   1.342       .  A
N40         C184   1.420       .  S
C42          H43   1.082       .  S
C47          C49   1.558       .  S
C47          C51   1.565       .  S
C47          C50   1.568       .  S
C47         C234   1.571       .  S
C48          C52   1.513       .  S
C48          C54   1.533       .  S
C48          C53   1.510       .  S
C48         C193   1.522       .  S
C49          C57   1.384       .  A
C49          C52   1.393   1_554  A
C50          C61   1.392       .  A
C50          C53   1.397   1_554  A
C51          C65   1.391       .  A
C51          C54   1.401   1_554  A
C52          C55   1.370       .  A
C53          C59   1.366       .  A
C54          C62   1.373       .  A
C55          N56   1.344       .  A
C55          H68   1.081       .  S
N56          C57   1.364   1_556  A
N56         C134   1.424       .  S
C57          H58   1.082       .  S
C59          N60   1.339       .  A
C59          H69   1.083       .  S
N60          C61   1.364   1_556  A
N60          C98   1.420       .  S
C61          H67   1.081       .  S
C62          N63   1.341   1_556  A
C62          H64   1.081       .  S
N63          C65   1.363       .  A
N63         C109   1.427       .  S
C65          H66   1.081       .  S
C70          C72   1.576       .  S
C70          C74   1.563       .  S
C70          C73   1.547       .  S
C70         C225   1.570       .  S
C71          C75   1.527       .  S
C71          C77   1.517       .  S
C71          C76   1.498       .  S
C71         C202   1.514       .  S
C72          C80   1.390       .  A
C72          C75   1.407       .  A
C73          C84   1.384       .  A
C73          C76   1.385       .  A
C74          C88   1.386       .  A
C74          C77   1.399       .  A
C75          C78   1.373       .  A
C76          C82   1.361       .  A
C77          C85   1.368       .  A
C78          N79   1.341       .  A
C78          H91   1.081       .  S
N79          C80   1.360       .  A
N79         C182   1.423       .  S
C80          H81   1.081       .  S
C82          N83   1.338       .  A
C82          H92   1.083       .  S
N83          C84   1.363       .  A
N83         C146   1.414       .  S
C84          H90   1.082       .  S
C85          N86   1.342       .  A
C85          H87   1.081       .  S
N86          C88   1.365       .  A
N86         C157   1.423       .  S
C88          H89   1.082       .  S
O93         Mg95   2.159   1_455  S
O93        Mg417   2.165   1_554  S
O93         C444   1.231       .  S
C94         H133   1.081       .  S
C94         O107   1.232       .  S
C94         O131   1.266       .  A
Mg95        O756   2.170   1_554  S
Mg95        O139   2.276   1_654  S
Mg95        O767   2.266       .  S
Mg95        O738   2.294       .  S
O96        Mg121   2.164       .  S
O96        Mg770   2.182   1_554  S
O96         C749   1.233       .  S
O97         C128   1.266   1_545  A
O97        Mg121   2.295       .  S
C98         O100   1.266       .  A
C98         O112   1.269       .  A
O99         C127   1.267   1_455  A
O99        Mg417   2.299       .  S
O100       Mg132   2.229       .  S
Mg101       O107   2.158   1_565  S
Mg101       O409   2.165   1_556  S
Mg101       O103   2.274   1_566  S
Mg101       O415   2.299       .  S
Mg101       O431   2.258       .  S
C102        O140   1.268       .  A
C102        O108   1.271       .  A
O103        C110   1.270       .  A
H104        C749   1.081       .  S
C105        H446   1.081       .  S
C105        O435   1.231       .  S
C105        O120   1.266       .  A
O106        C129   1.267       .  A
O106       Mg727   2.294       .  S
O107       Mg121   2.192   1_556  S
O108       Mg138   2.285   1_554  S
C109        O122   1.270   1_554  A
C109        O114   1.272       .  A
C110        O137   1.273       .  A
Mg111       O118   2.150       .  S
Mg111       O435   2.160   1_554  S
Mg111       O112   2.267   1_554  S
Mg111       O429   2.303       .  S
Mg111       O456   2.253       .  S
O113        C117   1.268       .  A
O113       Mg427   2.303   1_545  S
O114       Mg121   2.291       .  S
O115        C134   1.270       .  A
O115       Mg417   2.258       .  S
O116        C136   1.264   1_556  A
O116       Mg132   2.250       .  S
C117        H736   1.081       .  S
C117        O728   1.233       .  S
O118       Mg132   2.178   1_554  S
O118        C129   1.232       .  S
O119       Mg138   2.150       .  S
O119       Mg427   2.160   1_546  S
O119        C421   1.231       .  S
O120       Mg132   2.294       .  S
Mg121       O137   2.276       .  S
O122       Mg770   2.252       .  S
H123        C444   1.081       .  S
O124       Mg132   2.144       .  S
O124       Mg727   2.170   1_556  S
O124        C759   1.231       .  S
H125        C759   1.081       .  S
H126        C129   1.081       .  S
C127        H757   1.081       .  S
C127        O756   1.231       .  S
C128        H439   1.081       .  S
C128        O409   1.231       .  S
H130        C421   1.081       .  S
O131       Mg770   2.291       .  S
C134        O139   1.270       .  A
O135        C136   1.271       .  A
O135       Mg727   2.266       .  S
Mg138       O728   2.182   1_556  S
Mg138       O754   2.252       .  S
Mg138       O763   2.291       .  S
O140       Mg427   2.253   1_545  S
O141       Mg143   2.141       .  S
O141       Mg781   2.186       .  S
O141        C808   1.232       .  S
C142        H181   1.081       .  S
C142        O155   1.231       .  S
C142        O179   1.265       .  A
Mg143       O488   2.170       .  S
Mg143       O187   2.253       .  S
Mg143       O499   2.236       .  S
Mg143       O470   2.300       .  S
O144       Mg169   2.146       .  S
O144       Mg502   2.178       .  S
O144        C481   1.230       .  S
O145        C176   1.266       .  A
O145       Mg169   2.292       .  S
C146        O148   1.267       .  A
C146        O160   1.267       .  A
O147        C175   1.264       .  A
O147       Mg781   2.283       .  S
O148       Mg180   2.229       .  S
Mg149       O155   2.155       .  S
Mg149       O773   2.186       .  S
Mg149       O151   2.251       .  S
Mg149       O779   2.283       .  S
Mg149       O795   2.260       .  S
C150        O188   1.272       .  A
C150        O156   1.266       .  A
O151        C158   1.267       .  A
H152        C481   1.081       .  S
C153        H810   1.081       .  S
C153        O799   1.232       .  S
C153        O168   1.266   1_655  A
O154        C177   1.266       .  A
O154       Mg459   2.300       .  S
O155       Mg169   2.173       .  S
O156       Mg186   2.256       .  S
C157        O170   1.267       .  A
C157        O162   1.273       .  A
C158        O185   1.272       .  A
Mg159       O166   2.157       .  S
Mg159       O799   2.186   1_455  S
Mg159       O160   2.253       .  S
Mg159       O793   2.286   1_455  S
Mg159       O820   2.270   1_455  S
O161        C165   1.264   1_545  A
O161       Mg791   2.286       .  S
O162       Mg169   2.284       .  S
O163        C182   1.271       .  A
O163       Mg781   2.260       .  S
O164        C184   1.269       .  A
O164       Mg180   2.267       .  S
C165        H468   1.081       .  S
C165        O460   1.230       .  S
O166       Mg180   2.174       .  S
O166        C177   1.231       .  S
O167       Mg186   2.143       .  S
O167       Mg791   2.186       .  S
O167        C785   1.232       .  S
O168       Mg180   2.292       .  S
Mg169       O185   2.257       .  S
O170       Mg502   2.235       .  S
H171        C808   1.081       .  S
O172       Mg180   2.135       .  S
O172       Mg459   2.170       .  S
O172        C491   1.231       .  S
H173        C491   1.081       .  S
H174        C177   1.081       .  S
C175        H489   1.081       .  S
C175        O488   1.231       .  S
C176        H803   1.081       .  S
C176        O773   1.232       .  S
H178        C785   1.081       .  S
O179       Mg502   2.293       .  S
C182        O187   1.265       .  A
O183        C184   1.266       .  A
O183       Mg459   2.236       .  S
Mg186       O460   2.178   1_545  S
Mg186       O486   2.235   1_545  S
Mg186       O495   2.293   1_545  S
O188       Mg791   2.270       .  S
C189        C190   1.395       .  A
C189        C194   1.397       .  A
C189        H199   1.086       .  S
C190        C191   1.406       .  A
C190        C195   1.454       .  S
C191        C196   1.521       .  S
C191        C192   1.388       .  A
C192        C193   1.406       .  A
C192        H197   1.076       .  S
C193        C194   1.434       .  A
C194        C198   1.529       .  S
C195        C200   1.406       .  A
C195        C204   1.395       .  A
C196        F212   1.382       .  S
C196        F213   1.383       .  S
C196        F214   1.384       .  S
C198        F209   1.384       .  S
C198        F210   1.384       .  S
C198        F211   1.375       .  S
C200        C205   1.519       .  S
C200        C201   1.395       .  A
C201        C202   1.409       .  A
C201        H206   1.079       .  S
C202        C203   1.429       .  A
C203        C207   1.528       .  S
C203        C204   1.391       .  A
C204        H208   1.085       .  S
C205        F218   1.385       .  S
C205        F219   1.382       .  S
C205        F220   1.383       .  S
C207        F215   1.383       .  S
C207        F216   1.377       .  S
C207        F217   1.385       .  S
C221        C222   1.404       .  A
C221        C226   1.422       .  A
C221        H231   1.085       .  S
C222        C223   1.418       .  A
C222        C227   1.519       .  S
C223        C228   1.521       .  S
C223        C224   1.416       .  A
C224        C225   1.415       .  A
C224        H229   1.073       .  S
C225        C226   1.440       .  A
C226        C230   1.524       .  S
C227        C232   1.417       .  A
C227        C236   1.403       .  A
C228        F244   1.381       .  S
C228        F245   1.383       .  S
C228        F246   1.385       .  S
C230        F241   1.383       .  S
C230        F242   1.385       .  S
C230        F243   1.375       .  S
C232        C237   1.519       .  S
C232        C233   1.421       .  A
C233        C234   1.416       .  A
C233        H238   1.074       .  S
C234        C235   1.439       .  A
C235        C239   1.525       .  S
C235        C236   1.418       .  A
C236        H240   1.084       .  S
C237        F250   1.384       .  S
C237        F251   1.382       .  S
C237        F252   1.383       .  S
C239        F247   1.383       .  S
C239        F248   1.375       .  S
C239        F249   1.384       .  S
C253        C254   1.403       .  A
C253        C258   1.420       .  A
C253        H263   1.085       .  S
C254        C255   1.418       .  A
C254        C259   1.518       .  S
C255        C260   1.520       .  S
C255        C256   1.422       .  A
C256        C257   1.418       .  A
C256        H261   1.078       .  S
C257        C258   1.440       .  A
C258        C262   1.524       .  S
C259        C264   1.418       .  A
C259        C268   1.403       .  A
C260        F276   1.383       .  S
C260        F277   1.380       .  S
C260        F278   1.385       .  S
C262        F273   1.383       .  S
C262        F274   1.385       .  S
C262        F275   1.376       .  S
C264        C269   1.520       .  S
C264        C265   1.424       .  A
C265        C266   1.418       .  A
C265        H270   1.079       .  S
C266        C267   1.437       .  A
C267        C271   1.522       .  S
C267        C268   1.418       .  A
C268        H272   1.085       .  S
C269        F282   1.384       .  S
C269        F283   1.383       .  S
C269        F284   1.380       .  S
C271        F279   1.384       .  S
C271        F280   1.378       .  S
C271        F281   1.383       .  S
C285        C286   1.394       .  A
C285        C290   1.397       .  A
C285        H295   1.084       .  S
C286        C287   1.408       .  A
C286        C291   1.461       .  S
C287        C292   1.521       .  S
C287        C288   1.395       .  A
C288        C289   1.407       .  A
C288        H293   1.076       .  S
C289        C290   1.434       .  A
C290        C294   1.529       .  S
C291        C296   1.408       .  A
C291        C300   1.397       .  A
C292        F308   1.382       .  S
C292        F309   1.383       .  S
C292        F310   1.384       .  S
C294        F305   1.384       .  S
C294        F306   1.384       .  S
C294        F307   1.376       .  S
C296        C301   1.522       .  S
C296        C297   1.392       .  A
C297        C298   1.405       .  A
C297        H302   1.078       .  S
C298        C299   1.432       .  A
C299        C303   1.527       .  S
C299        C300   1.400       .  A
C300        H304   1.085       .  S
C301        F314   1.385       .  S
C301        F315   1.381       .  S
C301        F316   1.383       .  S
C303        F311   1.384       .  S
C303        F312   1.377       .  S
C303        F313   1.383       .  S
C317        C319   1.514       .  S
C317        C321   1.510       .  S
C317        C320   1.537       .  S
C317        C605   1.523       .  S
C318        C322   1.565       .  S
C318        C324   1.556       .  S
C318        C323   1.565       .  S
C318        C573   1.571       .  S
C319        C327   1.368       .  A
C319        C322   1.397   1_554  A
C320        C331   1.379       .  A
C320        C323   1.404   1_554  A
C321        C335   1.365       .  A
C321        C324   1.391   1_554  A
C322        C325   1.392       .  A
C323        C329   1.385       .  A
C324        C332   1.386       .  A
C325        N326   1.365   1_556  A
C325        H338   1.082       .  S
N326        C327   1.340       .  A
N326        C418   1.425       .  S
C327        H328   1.083       .  S
C329        N330   1.362   1_556  A
C329        H339   1.079       .  S
N330        C331   1.346       .  A
N330        C426   1.429       .  S
C331        H337   1.082       .  S
C332        N333   1.364   1_556  A
C332        H334   1.082       .  S
N333        C335   1.341       .  A
N333        C452   1.422       .  S
C335        H336   1.081       .  S
C340        C342   1.536       .  S
C340        C344   1.510       .  S
C340        C343   1.504       .  S
C340        C614   1.524       .  S
C341        C345   1.567       .  S
C341        C347   1.557       .  S
C341        C346   1.560       .  S
C341        C582   1.573       .  S
C342        C350   1.375       .  A
C342        C345   1.406       .  A
C343        C354   1.363       .  A
C343        C346   1.392       .  A
C344        C358   1.366       .  A
C344        C347   1.398       .  A
C345        C348   1.388       .  A
C346        C352   1.387       .  A
C347        C355   1.383       .  A
C348        N349   1.362       .  A
C348        H361   1.082       .  S
N349        C350   1.341       .  A
N349        C466   1.425       .  S
C350        H351   1.081       .  S
C352        N353   1.363       .  A
C352        H362   1.079       .  S
N353        C354   1.338       .  A
N353        C474   1.418       .  S
C354        H360   1.083       .  S
C355        N356   1.364       .  A
C355        H357   1.082       .  S
N356        C358   1.342       .  A
N356        C500   1.420       .  S
C358        H359   1.082       .  S
C363        C365   1.558       .  S
C363        C367   1.565       .  S
C363        C366   1.568       .  S
C363        C550   1.571       .  S
C364        C368   1.513       .  S
C364        C370   1.533       .  S
C364        C369   1.510       .  S
C364        C509   1.522       .  S
C365        C373   1.384       .  A
C365        C368   1.393   1_554  A
C366        C377   1.392       .  A
C366        C369   1.397   1_554  A
C367        C381   1.391       .  A
C367        C370   1.401   1_554  A
C368        C371   1.370       .  A
C369        C375   1.366       .  A
C370        C378   1.373       .  A
C371        N372   1.344       .  A
C371        H384   1.081       .  S
N372        C373   1.364   1_556  A
N372        C450   1.424       .  S
C373        H374   1.082       .  S
C375        N376   1.339       .  A
C375        H385   1.083       .  S
N376        C377   1.364   1_556  A
N376        C414   1.420       .  S
C377        H383   1.081       .  S
C378        N379   1.341   1_556  A
C378        H380   1.081       .  S
N379        C381   1.363       .  A
N379        C425   1.427       .  S
C381        H382   1.081       .  S
C386        C388   1.576       .  S
C386        C390   1.563       .  S
C386        C389   1.547       .  S
C386        C541   1.570       .  S
C387        C391   1.527       .  S
C387        C393   1.517       .  S
C387        C392   1.498       .  S
C387        C518   1.514       .  S
C388        C396   1.390       .  A
C388        C391   1.407       .  A
C389        C400   1.384       .  A
C389        C392   1.385       .  A
C390        C404   1.386       .  A
C390        C393   1.399       .  A
C391        C394   1.373       .  A
C392        C398   1.361       .  A
C393        C401   1.368       .  A
C394        N395   1.341       .  A
C394        H407   1.081       .  S
N395        C396   1.360       .  A
N395        C498   1.423       .  S
C396        H397   1.081       .  S
C398        N399   1.338       .  A
C398        H408   1.083       .  S
N399        C400   1.363       .  A
N399        C462   1.414       .  S
C400        H406   1.082       .  S
C401        N402   1.342       .  A
C401        H403   1.081       .  S
N402        C404   1.365       .  A
N402        C473   1.423       .  S
C404        H405   1.082       .  S
O409       Mg411   2.159   1_455  S
C410        H449   1.081       .  S
C410        O423   1.232       .  S
C410        O447   1.266       .  A
Mg411      O1072   2.170   1_554  S
Mg411       O455   2.276   1_654  S
Mg411      O1083   2.266       .  S
Mg411      O1054   2.294       .  S
O412      Mg1086   2.182   1_554  S
O412       Mg437   2.164       .  S
O412       C1065   1.233       .  S
O413        C444   1.266       .  A
O413       Mg437   2.295       .  S
C414        O416   1.266       .  A
C414        O428   1.269       .  A
O415        C443   1.267   1_455  A
O416       Mg448   2.229       .  S
Mg417       O423   2.158       .  S
Mg417       O419   2.274   1_556  S
C418        O456   1.268       .  A
C418        O424   1.271       .  A
O419        C426   1.270       .  A
H420       C1065   1.081       .  S
C421        O436   1.266   1_545  A
O422        C445   1.267       .  A
O422      Mg1043   2.294       .  S
O423       Mg437   2.192   1_556  S
O424       Mg454   2.285   1_554  S
C425        O438   1.270   1_554  A
C425        O430   1.272       .  A
C426        O453   1.273       .  A
Mg427       O434   2.150       .  S
Mg427       O428   2.267   1_554  S
O429        C433   1.268       .  A
O430       Mg437   2.291       .  S
O431        C450   1.270       .  A
O432        C452   1.264   1_556  A
O432       Mg448   2.250       .  S
C433       H1052   1.081       .  S
C433       O1044   1.233       .  S
O434       Mg448   2.178   1_554  S
O434        C445   1.232       .  S
O435       Mg454   2.150       .  S
O436       Mg448   2.294       .  S
Mg437       O453   2.276       .  S
O438      Mg1086   2.252       .  S
O440      Mg1043   2.170   1_556  S
O440       Mg448   2.144       .  S
O440       C1075   1.231       .  S
H441       C1075   1.081       .  S
H442        C445   1.081       .  S
C443       H1073   1.081       .  S
C443       O1072   1.231       .  S
O447      Mg1086   2.291       .  S
C450        O455   1.270       .  A
O451        C452   1.271       .  A
O451      Mg1043   2.266       .  S
Mg454      O1044   2.182   1_556  S
Mg454      O1070   2.252       .  S
Mg454      O1079   2.291       .  S
O457       Mg459   2.141   1_565  S
O457      Mg1097   2.186       .  S
O457       C1124   1.232       .  S
C458        H497   1.081       .  S
C458        O471   1.231       .  S
C458        O495   1.265       .  A
Mg459       O503   2.253   1_545  S
O460       Mg485   2.146       .  S
O461        C492   1.266       .  A
O461       Mg485   2.292       .  S
C462        O464   1.267       .  A
C462        O476   1.267       .  A
O463        C491   1.264   1_565  A
O463      Mg1097   2.283       .  S
O464       Mg496   2.229       .  S
Mg465      O1089   2.186       .  S
Mg465       O471   2.155       .  S
Mg465      O1095   2.283       .  S
Mg465      O1111   2.260       .  S
Mg465       O467   2.251       .  S
C466        O504   1.272       .  A
C466        O472   1.266       .  A
O467        C474   1.267       .  A
C469       H1126   1.081       .  S
C469       O1115   1.232       .  S
C469        O484   1.266   1_655  A
O470        C493   1.266       .  A
O471       Mg485   2.173       .  S
O472       Mg502   2.256       .  S
C473        O486   1.267       .  A
C473        O478   1.273       .  A
C474        O501   1.272       .  A
Mg475       O482   2.157       .  S
Mg475      O1115   2.186   1_455  S
Mg475       O476   2.253       .  S
Mg475      O1109   2.286   1_455  S
Mg475      O1136   2.270   1_455  S
O477        C481   1.264       .  A
O477      Mg1107   2.286       .  S
O478       Mg485   2.284       .  S
O479        C498   1.271       .  A
O479      Mg1097   2.260       .  S
O480        C500   1.269       .  A
O480       Mg496   2.267       .  S
O482       Mg496   2.174       .  S
O482        C493   1.231       .  S
O483      Mg1107   2.186       .  S
O483       Mg502   2.143       .  S
O483       C1101   1.232       .  S
O484       Mg496   2.292       .  S
Mg485       O501   2.257       .  S
H487       C1124   1.081       .  S
O488       Mg496   2.135       .  S
H490        C493   1.081       .  S
C492       H1119   1.081       .  S
C492       O1089   1.232       .  S
H494       C1101   1.081       .  S
C498        O503   1.265       .  A
O499        C500   1.266       .  A
O504      Mg1107   2.270       .  S
C505        C506   1.395       .  A
C505        C510   1.397       .  A
C505        H515   1.086       .  S
C506        C507   1.406       .  A
C506        C511   1.454       .  S
C507        C512   1.521       .  S
C507        C508   1.388       .  A
C508        C509   1.406       .  A
C508        H513   1.076       .  S
C509        C510   1.434       .  A
C510        C514   1.529       .  S
C511        C516   1.406       .  A
C511        C520   1.395       .  A
C512        F528   1.382       .  S
C512        F529   1.383       .  S
C512        F530   1.384       .  S
C514        F525   1.384       .  S
C514        F526   1.384       .  S
C514        F527   1.375       .  S
C516        C521   1.519       .  S
C516        C517   1.395       .  A
C517        C518   1.409       .  A
C517        H522   1.079       .  S
C518        C519   1.429       .  A
C519        C523   1.528       .  S
C519        C520   1.391       .  A
C520        H524   1.085       .  S
C521        F534   1.385       .  S
C521        F535   1.382       .  S
C521        F536   1.383       .  S
C523        F531   1.383       .  S
C523        F532   1.377       .  S
C523        F533   1.385       .  S
C537        C538   1.404       .  A
C537        C542   1.422       .  A
C537        H547   1.085       .  S
C538        C539   1.418       .  A
C538        C543   1.519       .  S
C539        C544   1.521       .  S
C539        C540   1.416       .  A
C540        C541   1.415       .  A
C540        H545   1.073       .  S
C541        C542   1.440       .  A
C542        C546   1.524       .  S
C543        C548   1.417       .  A
C543        C552   1.403       .  A
C544        F560   1.381       .  S
C544        F561   1.383       .  S
C544        F562   1.385       .  S
C546        F557   1.383       .  S
C546        F558   1.385       .  S
C546        F559   1.375       .  S
C548        C553   1.519       .  S
C548        C549   1.421       .  A
C549        C550   1.416       .  A
C549        H554   1.074       .  S
C550        C551   1.439       .  A
C551        C555   1.525       .  S
C551        C552   1.418       .  A
C552        H556   1.084       .  S
C553        F566   1.384       .  S
C553        F567   1.382       .  S
C553        F568   1.383       .  S
C555        F563   1.383       .  S
C555        F564   1.375       .  S
C555        F565   1.384       .  S
C569        C570   1.403       .  A
C569        C574   1.420       .  A
C569        H579   1.085       .  S
C570        C571   1.418       .  A
C570        C575   1.518       .  S
C571        C576   1.520       .  S
C571        C572   1.422       .  A
C572        C573   1.418       .  A
C572        H577   1.078       .  S
C573        C574   1.440       .  A
C574        C578   1.524       .  S
C575        C580   1.418       .  A
C575        C584   1.403       .  A
C576        F592   1.383       .  S
C576        F593   1.380       .  S
C576        F594   1.385       .  S
C578        F589   1.383       .  S
C578        F590   1.385       .  S
C578        F591   1.376       .  S
C580        C585   1.520       .  S
C580        C581   1.424       .  A
C581        C582   1.418       .  A
C581        H586   1.079       .  S
C582        C583   1.437       .  A
C583        C587   1.522       .  S
C583        C584   1.418       .  A
C584        H588   1.085       .  S
C585        F598   1.384       .  S
C585        F599   1.383       .  S
C585        F600   1.380       .  S
C587        F595   1.384       .  S
C587        F596   1.378       .  S
C587        F597   1.383       .  S
C601        C602   1.394       .  A
C601        C606   1.397       .  A
C601        H611   1.084       .  S
C602        C603   1.408       .  A
C602        C607   1.461       .  S
C603        C608   1.521       .  S
C603        C604   1.395       .  A
C604        C605   1.407       .  A
C604        H609   1.076       .  S
C605        C606   1.434       .  A
C606        C610   1.529       .  S
C607        C612   1.408       .  A
C607        C616   1.397       .  A
C608        F624   1.382       .  S
C608        F625   1.383       .  S
C608        F626   1.384       .  S
C610        F621   1.384       .  S
C610        F622   1.384       .  S
C610        F623   1.376       .  S
C612        C617   1.522       .  S
C612        C613   1.392       .  A
C613        C614   1.405       .  A
C613        H618   1.078       .  S
C614        C615   1.432       .  A
C615        C619   1.527       .  S
C615        C616   1.400       .  A
C616        H620   1.085       .  S
C617        F630   1.385       .  S
C617        F631   1.381       .  S
C617        F632   1.383       .  S
C619        F627   1.384       .  S
C619        F628   1.377       .  S
C619        F629   1.383       .  S
C633        C635   1.514       .  S
C633        C637   1.510       .  S
C633        C636   1.537       .  S
C633        C921   1.523       .  S
C634        C638   1.565       .  S
C634        C640   1.556       .  S
C634        C639   1.565       .  S
C634        C889   1.571       .  S
C635        C643   1.368       .  A
C635        C638   1.397   1_554  A
C636        C647   1.379       .  A
C636        C639   1.404   1_554  A
C637        C651   1.365       .  A
C637        C640   1.391   1_554  A
C638        C641   1.392       .  A
C639        C645   1.385       .  A
C640        C648   1.386       .  A
C641        N642   1.365   1_556  A
C641        H654   1.082       .  S
N642        C643   1.340       .  A
N642        C734   1.425       .  S
C643        H644   1.083       .  S
C645        N646   1.362   1_556  A
C645        H655   1.079       .  S
N646        C647   1.346       .  A
N646        C742   1.429       .  S
C647        H653   1.082       .  S
C648        N649   1.364   1_556  A
C648        H650   1.082       .  S
N649        C651   1.341       .  A
N649        C768   1.422       .  S
C651        H652   1.081       .  S
C656        C658   1.536       .  S
C656        C660   1.510       .  S
C656        C659   1.504       .  S
C656        C930   1.524       .  S
C657        C661   1.567       .  S
C657        C663   1.557       .  S
C657        C662   1.560       .  S
C657        C898   1.573       .  S
C658        C666   1.375       .  A
C658        C661   1.406       .  A
C659        C670   1.363       .  A
C659        C662   1.392       .  A
C660        C674   1.366       .  A
C660        C663   1.398       .  A
C661        C664   1.388       .  A
C662        C668   1.387       .  A
C663        C671   1.383       .  A
C664        N665   1.362       .  A
C664        H677   1.082       .  S
N665        C666   1.341       .  A
N665        C782   1.425       .  S
C666        H667   1.081       .  S
C668        N669   1.363       .  A
C668        H678   1.079       .  S
N669        C670   1.338       .  A
N669        C790   1.418       .  S
C670        H676   1.083       .  S
C671        N672   1.364       .  A
C671        H673   1.082       .  S
N672        C674   1.342       .  A
N672        C816   1.420       .  S
C674        H675   1.082       .  S
C679        C681   1.558       .  S
C679        C683   1.565       .  S
C679        C682   1.568       .  S
C679        C866   1.571       .  S
C680        C684   1.513       .  S
C680        C686   1.533       .  S
C680        C685   1.510       .  S
C680        C825   1.522       .  S
C681        C689   1.384       .  A
C681        C684   1.393   1_554  A
C682        C693   1.392       .  A
C682        C685   1.397   1_554  A
C683        C697   1.391       .  A
C683        C686   1.401   1_554  A
C684        C687   1.370       .  A
C685        C691   1.366       .  A
C686        C694   1.373       .  A
C687        N688   1.344       .  A
C687        H700   1.081       .  S
N688        C689   1.364   1_556  A
N688        C766   1.424       .  S
C689        H690   1.082       .  S
C691        N692   1.339       .  A
C691        H701   1.083       .  S
N692        C693   1.364   1_556  A
N692        C730   1.420       .  S
C693        H699   1.081       .  S
C694        N695   1.341   1_556  A
C694        H696   1.081       .  S
N695        C697   1.363       .  A
N695        C741   1.427       .  S
C697        H698   1.081       .  S
C702        C704   1.576       .  S
C702        C706   1.563       .  S
C702        C705   1.547       .  S
C702        C857   1.570       .  S
C703        C707   1.527       .  S
C703        C709   1.517       .  S
C703        C708   1.498       .  S
C703        C834   1.514       .  S
C704        C712   1.390       .  A
C704        C707   1.407       .  A
C705        C716   1.384       .  A
C705        C708   1.385       .  A
C706        C720   1.386       .  A
C706        C709   1.399       .  A
C707        C710   1.373       .  A
C708        C714   1.361       .  A
C709        C717   1.368       .  A
C710        N711   1.341       .  A
C710        H723   1.081       .  S
N711        C712   1.360       .  A
N711        C814   1.423       .  S
C712        H713   1.081       .  S
C714        N715   1.338       .  A
C714        H724   1.083       .  S
N715        C716   1.363       .  A
N715        C778   1.414       .  S
C716        H722   1.082       .  S
C717        N718   1.342       .  A
C717        H719   1.081       .  S
N718        C720   1.365       .  A
N718        C789   1.423       .  S
C720        H721   1.082       .  S
O725       Mg727   2.159       .  S
O725      Mg1049   2.165   1_554  S
O725       C1076   1.231       .  S
C726        H765   1.081       .  S
C726        O739   1.232       .  S
C726        O763   1.266       .  A
Mg727       O771   2.276   1_554  S
O728       Mg753   2.164       .  S
O729        C760   1.266   1_545  A
O729       Mg753   2.295       .  S
C730        O732   1.266       .  A
C730        O744   1.269       .  A
O731        C759   1.267       .  A
O731      Mg1049   2.299       .  S
O732       Mg764   2.229       .  S
Mg733      O1041   2.165   1_556  S
Mg733       O739   2.158   1_565  S
Mg733      O1047   2.299       .  S
Mg733      O1063   2.258       .  S
Mg733       O735   2.274   1_566  S
C734        O772   1.268       .  A
C734        O740   1.271       .  A
O735        C742   1.270       .  A
C737       H1078   1.081       .  S
C737       O1067   1.231       .  S
C737        O752   1.266       .  A
O738        C761   1.267       .  A
O739       Mg753   2.192   1_556  S
O740       Mg770   2.285   1_654  S
C741        O754   1.270   1_554  A
C741        O746   1.272       .  A
C742        O769   1.273       .  A
Mg743       O750   2.150       .  S
Mg743      O1067   2.160   1_554  S
Mg743       O744   2.267   1_554  S
Mg743      O1061   2.303       .  S
Mg743      O1088   2.253       .  S
O745        C749   1.268   1_655  A
O745      Mg1059   2.303   1_545  S
O746       Mg753   2.291       .  S
O747        C766   1.270       .  A
O747      Mg1049   2.258       .  S
O748        C768   1.264   1_556  A
O748       Mg764   2.250       .  S
O750       Mg764   2.178   1_554  S
O750        C761   1.232       .  S
O751      Mg1059   2.160   1_546  S
O751       Mg770   2.150   1_655  S
O751       C1053   1.231       .  S
O752       Mg764   2.294       .  S
Mg753       O769   2.276       .  S
H755       C1076   1.081       .  S
O756       Mg764   2.144       .  S
H758        C761   1.081       .  S
C760       H1071   1.081       .  S
C760       O1041   1.231       .  S
H762       C1053   1.081       .  S
C766        O771   1.270       .  A
O767        C768   1.271       .  A
O772      Mg1059   2.253   1_545  S
O773       Mg775   2.141       .  S
C774        H813   1.081       .  S
C774        O787   1.231       .  S
C774        O811   1.265       .  A
Mg775      O1120   2.170       .  S
Mg775       O819   2.253       .  S
Mg775      O1131   2.236       .  S
Mg775      O1102   2.300       .  S
O776      Mg1134   2.178       .  S
O776       Mg801   2.146       .  S
O776       C1113   1.230       .  S
O777        C808   1.266   1_655  A
O777       Mg801   2.292       .  S
C778        O780   1.267       .  A
C778        O792   1.267       .  A
O779        C807   1.264       .  A
O780       Mg812   2.229       .  S
Mg781       O787   2.155   1_455  S
Mg781       O783   2.251   1_455  S
C782        O820   1.272       .  A
C782        O788   1.266       .  A
O783        C790   1.267       .  A
H784       C1113   1.081       .  S
C785        O800   1.266       .  A
O786        C809   1.266       .  A
O786      Mg1091   2.300       .  S
O787       Mg801   2.173       .  S
O788       Mg818   2.256       .  S
C789        O802   1.267       .  A
C789        O794   1.273       .  A
C790        O817   1.272       .  A
Mg791       O798   2.157       .  S
Mg791       O792   2.253       .  S
O793        C797   1.264   1_545  A
O794       Mg801   2.284       .  S
O795        C814   1.271       .  A
O796        C816   1.269       .  A
O796       Mg812   2.267       .  S
C797       H1100   1.081       .  S
C797       O1092   1.230       .  S
O798       Mg812   2.174       .  S
O798        C809   1.231       .  S
O799       Mg818   2.143       .  S
O800       Mg812   2.292       .  S
Mg801       O817   2.257       .  S
O802      Mg1134   2.235       .  S
O804      Mg1091   2.170       .  S
O804       Mg812   2.135       .  S
O804       C1123   1.231       .  S
H805       C1123   1.081       .  S
H806        C809   1.081       .  S
C807       H1121   1.081       .  S
C807       O1120   1.231       .  S
O811      Mg1134   2.293       .  S
C814        O819   1.265       .  A
O815        C816   1.266       .  A
O815      Mg1091   2.236       .  S
Mg818      O1092   2.178   1_545  S
Mg818      O1118   2.235   1_545  S
Mg818      O1127   2.293   1_545  S
C821        C822   1.395       .  A
C821        C826   1.397       .  A
C821        H831   1.086       .  S
C822        C823   1.406       .  A
C822        C827   1.454       .  S
C823        C828   1.521       .  S
C823        C824   1.388       .  A
C824        C825   1.406       .  A
C824        H829   1.076       .  S
C825        C826   1.434       .  A
C826        C830   1.529       .  S
C827        C832   1.406       .  A
C827        C836   1.395       .  A
C828        F844   1.382       .  S
C828        F845   1.383       .  S
C828        F846   1.384       .  S
C830        F841   1.384       .  S
C830        F842   1.384       .  S
C830        F843   1.375       .  S
C832        C837   1.519       .  S
C832        C833   1.395       .  A
C833        C834   1.409       .  A
C833        H838   1.079       .  S
C834        C835   1.429       .  A
C835        C839   1.528       .  S
C835        C836   1.391       .  A
C836        H840   1.085       .  S
C837        F850   1.385       .  S
C837        F851   1.382       .  S
C837        F852   1.383       .  S
C839        F847   1.383       .  S
C839        F848   1.377       .  S
C839        F849   1.385       .  S
C853        C854   1.404       .  A
C853        C858   1.422       .  A
C853        H863   1.085       .  S
C854        C855   1.418       .  A
C854        C859   1.519       .  S
C855        C860   1.521       .  S
C855        C856   1.416       .  A
C856        C857   1.415       .  A
C856        H861   1.073       .  S
C857        C858   1.440       .  A
C858        C862   1.524       .  S
C859        C864   1.417       .  A
C859        C868   1.403       .  A
C860        F876   1.381       .  S
C860        F877   1.383       .  S
C860        F878   1.385       .  S
C862        F873   1.383       .  S
C862        F874   1.385       .  S
C862        F875   1.375       .  S
C864        C869   1.519       .  S
C864        C865   1.421       .  A
C865        C866   1.416       .  A
C865        H870   1.074       .  S
C866        C867   1.439       .  A
C867        C871   1.525       .  S
C867        C868   1.418       .  A
C868        H872   1.084       .  S
C869        F882   1.384       .  S
C869        F883   1.382       .  S
C869        F884   1.383       .  S
C871        F879   1.383       .  S
C871        F880   1.375       .  S
C871        F881   1.384       .  S
C885        C886   1.403       .  A
C885        C890   1.420       .  A
C885        H895   1.085       .  S
C886        C887   1.418       .  A
C886        C891   1.518       .  S
C887        C892   1.520       .  S
C887        C888   1.422       .  A
C888        C889   1.418       .  A
C888        H893   1.078       .  S
C889        C890   1.440       .  A
C890        C894   1.524       .  S
C891        C896   1.418       .  A
C891        C900   1.403       .  A
C892        F908   1.383       .  S
C892        F909   1.380       .  S
C892        F910   1.385       .  S
C894        F905   1.383       .  S
C894        F906   1.385       .  S
C894        F907   1.376       .  S
C896        C901   1.520       .  S
C896        C897   1.424       .  A
C897        C898   1.418       .  A
C897        H902   1.079       .  S
C898        C899   1.437       .  A
C899        C903   1.522       .  S
C899        C900   1.418       .  A
C900        H904   1.085       .  S
C901        F914   1.384       .  S
C901        F915   1.383       .  S
C901        F916   1.380       .  S
C903        F911   1.384       .  S
C903        F912   1.378       .  S
C903        F913   1.383       .  S
C917        C918   1.394       .  A
C917        C922   1.397       .  A
C917        H927   1.084       .  S
C918        C919   1.408       .  A
C918        C923   1.461       .  S
C919        C924   1.521       .  S
C919        C920   1.395       .  A
C920        C921   1.407       .  A
C920        H925   1.076       .  S
C921        C922   1.434       .  A
C922        C926   1.529       .  S
C923        C928   1.408       .  A
C923        C932   1.397       .  A
C924        F940   1.382       .  S
C924        F941   1.383       .  S
C924        F942   1.384       .  S
C926        F937   1.384       .  S
C926        F938   1.384       .  S
C926        F939   1.376       .  S
C928        C933   1.522       .  S
C928        C929   1.392       .  A
C929        C930   1.405       .  A
C929        H934   1.078       .  S
C930        C931   1.432       .  A
C931        C935   1.527       .  S
C931        C932   1.400       .  A
C932        H936   1.085       .  S
C933        F946   1.385       .  S
C933        F947   1.381       .  S
C933        F948   1.383       .  S
C935        F943   1.384       .  S
C935        F944   1.377       .  S
C935        F945   1.383       .  S
C949        C951   1.514       .  S
C949        C953   1.510       .  S
C949        C952   1.537       .  S
C949       C1237   1.523       .  S
C950        C954   1.565       .  S
C950        C956   1.556       .  S
C950        C955   1.565       .  S
C950       C1205   1.571       .  S
C951        C959   1.368       .  A
C951        C954   1.397   1_554  A
C952        C963   1.379       .  A
C952        C955   1.404   1_554  A
C953        C967   1.365       .  A
C953        C956   1.391   1_554  A
C954        C957   1.392       .  A
C955        C961   1.385       .  A
C956        C964   1.386       .  A
C957        N958   1.365   1_556  A
C957        H970   1.082       .  S
N958        C959   1.340       .  A
N958       C1050   1.425       .  S
C959        H960   1.083       .  S
C961        N962   1.362   1_556  A
C961        H971   1.079       .  S
N962        C963   1.346       .  A
N962       C1058   1.429       .  S
C963        H969   1.082       .  S
C964        N965   1.364   1_556  A
C964        H966   1.082       .  S
N965        C967   1.341       .  A
N965       C1084   1.422       .  S
C967        H968   1.081       .  S
C972        C974   1.536       .  S
C972        C976   1.510       .  S
C972        C975   1.504       .  S
C972       C1246   1.524       .  S
C973        C977   1.567       .  S
C973        C979   1.557       .  S
C973        C978   1.560       .  S
C973       C1214   1.573       .  S
C974        C982   1.375       .  A
C974        C977   1.406       .  A
C975        C986   1.363       .  A
C975        C978   1.392       .  A
C976        C990   1.366       .  A
C976        C979   1.398       .  A
C977        C980   1.388       .  A
C978        C984   1.387       .  A
C979        C987   1.383       .  A
C980        N981   1.362       .  A
C980        H993   1.082       .  S
N981        C982   1.341       .  A
N981       C1098   1.425       .  S
C982        H983   1.081       .  S
C984        N985   1.363       .  A
C984        H994   1.079       .  S
N985        C986   1.338       .  A
N985       C1106   1.418       .  S
C986        H992   1.083       .  S
C987        N988   1.364       .  A
C987        H989   1.082       .  S
N988        C990   1.342       .  A
N988       C1132   1.420       .  S
C990        H991   1.082       .  S
C995        C997   1.558       .  S
C995        C999   1.565       .  S
C995        C998   1.568       .  S
C995       C1182   1.571       .  S
C996       C1000   1.513       .  S
C996       C1002   1.533       .  S
C996       C1001   1.510       .  S
C996       C1141   1.522       .  S
C997       C1005   1.384       .  A
C997       C1000   1.393   1_554  A
C998       C1009   1.392       .  A
C998       C1001   1.397   1_554  A
C999       C1013   1.391       .  A
C999       C1002   1.401   1_554  A
C1000      C1003   1.370       .  A
C1001      C1007   1.366       .  A
C1002      C1010   1.373       .  A
C1003      N1004   1.344       .  A
C1003      H1016   1.081       .  S
N1004      C1005   1.364   1_556  A
N1004      C1082   1.424       .  S
C1005      H1006   1.082       .  S
C1007      N1008   1.339       .  A
C1007      H1017   1.083       .  S
N1008      C1009   1.364   1_556  A
N1008      C1046   1.420       .  S
C1009      H1015   1.081       .  S
C1010      N1011   1.341   1_556  A
C1010      H1012   1.081       .  S
N1011      C1013   1.363       .  A
N1011      C1057   1.427       .  S
C1013      H1014   1.081       .  S
C1018      C1020   1.576       .  S
C1018      C1022   1.563       .  S
C1018      C1021   1.547       .  S
C1018      C1173   1.570       .  S
C1019      C1023   1.527       .  S
C1019      C1025   1.517       .  S
C1019      C1024   1.498       .  S
C1019      C1150   1.514       .  S
C1020      C1028   1.390       .  A
C1020      C1023   1.407       .  A
C1021      C1032   1.384       .  A
C1021      C1024   1.385       .  A
C1022      C1036   1.386       .  A
C1022      C1025   1.399       .  A
C1023      C1026   1.373       .  A
C1024      C1030   1.361       .  A
C1025      C1033   1.368       .  A
C1026      N1027   1.341       .  A
C1026      H1039   1.081       .  S
N1027      C1028   1.360       .  A
N1027      C1130   1.423       .  S
C1028      H1029   1.081       .  S
C1030      N1031   1.338       .  A
C1030      H1040   1.083       .  S
N1031      C1032   1.363       .  A
N1031      C1094   1.414       .  S
C1032      H1038   1.082       .  S
C1033      N1034   1.342       .  A
C1033      H1035   1.081       .  S
N1034      C1036   1.365       .  A
N1034      C1105   1.423       .  S
C1036      H1037   1.082       .  S
O1041     Mg1043   2.159       .  S
C1042      H1081   1.081       .  S
C1042      O1055   1.232       .  S
C1042      O1079   1.266       .  A
Mg1043     O1087   2.276   1_554  S
O1044     Mg1069   2.164       .  S
O1045      C1076   1.266       .  A
O1045     Mg1069   2.295       .  S
C1046      O1048   1.266       .  A
C1046      O1060   1.269       .  A
O1047      C1075   1.267       .  A
O1048     Mg1080   2.229       .  S
Mg1049     O1055   2.158       .  S
Mg1049     O1051   2.274   1_556  S
C1050      O1088   1.268       .  A
C1050      O1056   1.271       .  A
O1051      C1058   1.270       .  A
C1053      O1068   1.266   1_545  A
O1054      C1077   1.267       .  A
O1055     Mg1069   2.192   1_556  S
O1056     Mg1086   2.285   1_654  S
C1057      O1070   1.270   1_554  A
C1057      O1062   1.272       .  A
C1058      O1085   1.273       .  A
Mg1059     O1066   2.150       .  S
Mg1059     O1060   2.267   1_554  S
O1061      C1065   1.268   1_655  A
O1062     Mg1069   2.291       .  S
O1063      C1082   1.270       .  A
O1064      C1084   1.264   1_556  A
O1064     Mg1080   2.250       .  S
O1066     Mg1080   2.178   1_554  S
O1066      C1077   1.232       .  S
O1067     Mg1086   2.150   1_655  S
O1068     Mg1080   2.294       .  S
Mg1069     O1085   2.276       .  S
O1072     Mg1080   2.144       .  S
H1074      C1077   1.081       .  S
C1082      O1087   1.270       .  A
O1083      C1084   1.271       .  A
O1089     Mg1091   2.141   1_565  S
C1090      H1129   1.081       .  S
C1090      O1103   1.231       .  S
C1090      O1127   1.265       .  A
Mg1091     O1135   2.253   1_545  S
O1092     Mg1117   2.146       .  S
O1093      C1124   1.266   1_655  A
O1093     Mg1117   2.292       .  S
C1094      O1096   1.267       .  A
C1094      O1108   1.267       .  A
O1095      C1123   1.264   1_565  A
O1096     Mg1128   2.229       .  S
Mg1097     O1103   2.155   1_455  S
Mg1097     O1099   2.251   1_455  S
C1098      O1136   1.272       .  A
C1098      O1104   1.266       .  A
O1099      C1106   1.267       .  A
C1101      O1116   1.266       .  A
O1102      C1125   1.266       .  A
O1103     Mg1117   2.173       .  S
O1104     Mg1134   2.256       .  S
C1105      O1118   1.267       .  A
C1105      O1110   1.273       .  A
C1106      O1133   1.272       .  A
Mg1107     O1114   2.157       .  S
Mg1107     O1108   2.253       .  S
O1109      C1113   1.264       .  A
O1110     Mg1117   2.284       .  S
O1111      C1130   1.271       .  A
O1112      C1132   1.269       .  A
O1112     Mg1128   2.267       .  S
O1114     Mg1128   2.174       .  S
O1114      C1125   1.231       .  S
O1115     Mg1134   2.143       .  S
O1116     Mg1128   2.292       .  S
Mg1117     O1133   2.257       .  S
O1120     Mg1128   2.135       .  S
H1122      C1125   1.081       .  S
C1130      O1135   1.265       .  A
O1131      C1132   1.266       .  A
C1137      C1138   1.395       .  A
C1137      C1142   1.397       .  A
C1137      H1147   1.086       .  S
C1138      C1139   1.406       .  A
C1138      C1143   1.454       .  S
C1139      C1144   1.521       .  S
C1139      C1140   1.388       .  A
C1140      C1141   1.406       .  A
C1140      H1145   1.076       .  S
C1141      C1142   1.434       .  A
C1142      C1146   1.529       .  S
C1143      C1148   1.406       .  A
C1143      C1152   1.395       .  A
C1144      F1160   1.382       .  S
C1144      F1161   1.383       .  S
C1144      F1162   1.384       .  S
C1146      F1157   1.384       .  S
C1146      F1158   1.384       .  S
C1146      F1159   1.375       .  S
C1148      C1153   1.519       .  S
C1148      C1149   1.395       .  A
C1149      C1150   1.409       .  A
C1149      H1154   1.079       .  S
C1150      C1151   1.429       .  A
C1151      C1155   1.528       .  S
C1151      C1152   1.391       .  A
C1152      H1156   1.085       .  S
C1153      F1166   1.385       .  S
C1153      F1167   1.382       .  S
C1153      F1168   1.383       .  S
C1155      F1163   1.383       .  S
C1155      F1164   1.377       .  S
C1155      F1165   1.385       .  S
C1169      C1170   1.404       .  A
C1169      C1174   1.422       .  A
C1169      H1179   1.085       .  S
C1170      C1171   1.418       .  A
C1170      C1175   1.519       .  S
C1171      C1176   1.521       .  S
C1171      C1172   1.416       .  A
C1172      C1173   1.415       .  A
C1172      H1177   1.073       .  S
C1173      C1174   1.440       .  A
C1174      C1178   1.524       .  S
C1175      C1180   1.417       .  A
C1175      C1184   1.403       .  A
C1176      F1192   1.381       .  S
C1176      F1193   1.383       .  S
C1176      F1194   1.385       .  S
C1178      F1189   1.383       .  S
C1178      F1190   1.385       .  S
C1178      F1191   1.375       .  S
C1180      C1185   1.519       .  S
C1180      C1181   1.421       .  A
C1181      C1182   1.416       .  A
C1181      H1186   1.074       .  S
C1182      C1183   1.439       .  A
C1183      C1187   1.525       .  S
C1183      C1184   1.418       .  A
C1184      H1188   1.084       .  S
C1185      F1198   1.384       .  S
C1185      F1199   1.382       .  S
C1185      F1200   1.383       .  S
C1187      F1195   1.383       .  S
C1187      F1196   1.375       .  S
C1187      F1197   1.384       .  S
C1201      C1202   1.403       .  A
C1201      C1206   1.420       .  A
C1201      H1211   1.085       .  S
C1202      C1203   1.418       .  A
C1202      C1207   1.518       .  S
C1203      C1208   1.520       .  S
C1203      C1204   1.422       .  A
C1204      C1205   1.418       .  A
C1204      H1209   1.078       .  S
C1205      C1206   1.440       .  A
C1206      C1210   1.524       .  S
C1207      C1212   1.418       .  A
C1207      C1216   1.403       .  A
C1208      F1224   1.383       .  S
C1208      F1225   1.380       .  S
C1208      F1226   1.385       .  S
C1210      F1221   1.383       .  S
C1210      F1222   1.385       .  S
C1210      F1223   1.376       .  S
C1212      C1217   1.520       .  S
C1212      C1213   1.424       .  A
C1213      C1214   1.418       .  A
C1213      H1218   1.079       .  S
C1214      C1215   1.437       .  A
C1215      C1219   1.522       .  S
C1215      C1216   1.418       .  A
C1216      H1220   1.085       .  S
C1217      F1230   1.384       .  S
C1217      F1231   1.383       .  S
C1217      F1232   1.380       .  S
C1219      F1227   1.384       .  S
C1219      F1228   1.378       .  S
C1219      F1229   1.383       .  S
C1233      C1234   1.394       .  A
C1233      C1238   1.397       .  A
C1233      H1243   1.084       .  S
C1234      C1235   1.408       .  A
C1234      C1239   1.461       .  S
C1235      C1240   1.521       .  S
C1235      C1236   1.395       .  A
C1236      C1237   1.407       .  A
C1236      H1241   1.076       .  S
C1237      C1238   1.434       .  A
C1238      C1242   1.529       .  S
C1239      C1244   1.408       .  A
C1239      C1248   1.397       .  A
C1240      F1256   1.382       .  S
C1240      F1257   1.383       .  S
C1240      F1258   1.384       .  S
C1242      F1253   1.384       .  S
C1242      F1254   1.384       .  S
C1242      F1255   1.376       .  S
C1244      C1249   1.522       .  S
C1244      C1245   1.392       .  A
C1245      C1246   1.405       .  A
C1245      H1250   1.078       .  S
C1246      C1247   1.432       .  A
C1247      C1251   1.527       .  S
C1247      C1248   1.400       .  A
C1248      H1252   1.085       .  S
C1249      F1262   1.385       .  S
C1249      F1263   1.381       .  S
C1249      F1264   1.383       .  S
C1251      F1259   1.384       .  S
C1251      F1260   1.377       .  S
C1251      F1261   1.383       .  S
