geometry optimzed in LAMMPS
_audit_creation_date              2020-12-01 
_audit_creation_method            'lammps2cif' 
_symmetry_space_group_name_H-M    'P1' 
_symmetry_Int_Tables_number       1 
_symmetry_cell_setting            triclinic 
loop_ 
_symmetry_equiv_pos_as_xyz 
  x,y,z 
_cell_length_a                    41.54074013 
_cell_length_b                    41.68691360364697 
_cell_length_c                    25.273509147685562 
_cell_angle_alpha                 90.06852717736645 
_cell_angle_beta                  90.14898632479212 
_cell_angle_gamma                 120.10276122171062 
loop_ 
_atom_site_label 
_atom_site_type_symbol 
_atom_site_fract_x 
_atom_site_fract_y 
_atom_site_fract_z 
_atom_site_charge 
N1          N  0.00114648  0.21725594  0.05879504    -0.36400
N2          N  0.50309641  0.28780639  0.05281886    -0.56900
N3          N  0.00073902  0.28198849  0.93842676    -0.36400
N4          N  0.00045759  0.21238840  0.94431629    -0.56900
C5          C  0.51067157  0.22965300  0.10906732     0.27200
C6          C  0.00859125  0.18941743  0.05216149     0.27200
C7          C  0.50848550  0.31735270  0.94472503     0.27200
C8          C  0.00961290  0.27874060  0.88813275     0.27200
C9          C  0.49723604  0.28134805  0.10541219     0.35800
C10         C  0.49533744  0.31486398  0.04078122     0.35800
C11         C  0.99329023  0.17777638  0.95619208     0.35800
C12         C  0.99487931  0.21314116  0.89162370     0.35800
C13         C  0.52438934  0.20955075  0.13461051    -0.21700
C14         C  0.02293887  0.18406597  0.09882098    -0.21700
C15         C  0.52252860  0.33688806  0.89815729    -0.21700
C16         C  0.02351515  0.31257434  0.86246975    -0.21700
C17         C  0.48617929  0.30477886  0.12717764    -0.22700
C18         C  0.48493888  0.32600789  0.08623076    -0.22700
C19         C  0.98339654  0.15643971  0.91033863    -0.22700
C20         C  0.98428488  0.17882636  0.86953829    -0.22700
C21         C  0.50373699  0.25590159  0.13406673    -0.18100
C22         C  0.99982701  0.16687444  0.00657229    -0.18100
C23         C  0.00182975  0.24527846  0.86315057    -0.18100
C24         C  0.50036279  0.33142240  0.99013296    -0.18100
H25         H  0.53362277  0.21230215  0.17530562     0.14900
H26         H  0.03082593  0.16347298  0.10699983     0.14900
H27         H  0.53066570  0.36550323  0.89043510     0.14900
H28         H  0.03249039  0.31886363  0.82174270     0.14900
H29         H  0.47994943  0.30656142  0.16826915     0.13100
H30         H  0.47766330  0.34748593  0.08963535     0.13100
H31         H  0.97715401  0.12804858  0.90624947     0.13100
H32         H  0.97867372  0.17103503  0.82823334     0.13100
H33         H  0.98584191  0.22391324  0.03303499     0.26400
H34         H  0.98551454  0.26029751  0.96445955     0.26400
N35         N  0.49612479  0.21209774  0.44546639    -0.36400
N36         N  0.49870728  0.21789854  0.56053487    -0.56900
N37         N  0.49847546  0.28738885  0.55329920    -0.36400
N38         N  0.49819454  0.28291490  0.43830413    -0.56900
C39         C  0.50361625  0.18495273  0.45850409     0.27200
C40         C  0.50310750  0.21932304  0.39309976     0.27200
C41         C  0.50669215  0.28747599  0.60527906     0.27200
C42         C  0.50669606  0.32217100  0.54005274     0.27200
C43         C  0.49239877  0.18295331  0.55562314     0.35800
C44         C  0.49243554  0.22202895  0.61175082     0.35800
C45         C  0.49153740  0.27244185  0.38698599     0.35800
C46         C  0.49193288  0.31160132  0.44366615     0.35800
C47         C  0.51476014  0.17418187  0.41334529    -0.21700
C48         C  0.51445542  0.19584392  0.37219511    -0.21700
C49         C  0.52021509  0.32282819  0.62569240    -0.21700
C50         C  0.52009801  0.34468270  0.58471082    -0.21700
C51         C  0.48214703  0.16478340  0.60377791    -0.22700
C52         C  0.48185686  0.18943733  0.63930848    -0.22700
C53         C  0.48117385  0.29468216  0.35962881    -0.22700
C54         C  0.48147962  0.31950958  0.39548604    -0.22700
C55         C  0.49874006  0.16829588  0.50929620    -0.18100
C56         C  0.49785023  0.24534632  0.36336940    -0.18100
C57         C  0.49912396  0.33297805  0.49013092    -0.18100
C58         C  0.50001960  0.25587869  0.63520040    -0.18100
H59         H  0.52212032  0.15274613  0.41024120     0.14900
H60         H  0.52153941  0.19430239  0.33144365     0.14900
H61         H  0.52860755  0.33176839  0.66613214     0.14900
H62         H  0.52835604  0.37368816  0.58797541     0.14900
H63         H  0.47600113  0.13686353  0.61254559     0.13100
H64         H  0.47547378  0.18419570  0.68098822     0.13100
H65         H  0.47472790  0.29361178  0.31791305     0.13100
H66         H  0.47558283  0.34142811  0.38657639     0.13100
H67         H  0.48332283  0.22256579  0.46992973     0.26400
H68         H  0.48368085  0.26379293  0.52974072     0.26400
O69         O  0.04711643  0.48304796  0.96159457    -0.88100
C70         C  0.47020067  0.43336626  0.07981701     0.87900
Mg71       Mg  0.08948262  0.04122506  0.96605815     1.58100
O72         O  0.43681375  0.45127629  0.96060136    -0.87800
O73         O  0.50329220  0.44209359  0.91083776    -0.75200
C74         C  0.50084078  0.13190094  0.01041058     0.93000
O75         O  0.05839163  0.50234683  0.08606639    -0.75000
O76         O  0.03168370  0.13358934  0.02001374    -0.82500
Mg77       Mg  0.04214145  0.45169175  0.03223046     1.58000
C78         C  0.36825854  0.00012878  0.98393399     0.92900
O79         O  0.02864598  0.39680233  0.99281945    -0.80700
H80         H  0.42553879  0.44346292  0.88315826    -0.06100
C81         C  0.46354549  0.03007833  0.07767237     0.87800
O82         O  0.05614136  0.05736180  0.90996269    -0.75300
O83         O  0.48410865  0.43560951  0.03597654    -0.88000
O84         O  0.36870711  0.47029543  0.99240561    -0.80800
C85         C  0.36755026  0.36760829  0.01444023     0.93000
C86         C  0.49890148  0.36604137  0.98515299     0.92900
Mg87       Mg  0.45767679  0.04613854  0.96290055     1.58000
O88         O  0.47111396  0.10125907  0.00187555    -0.80800
O89         O  0.44086925  0.99521627  0.90953418    -0.75000
O90         O  0.39795373  0.36854302  0.00446794    -0.80800
O91         O  0.10249088  0.46747551  0.02198519    -0.82500
O92         O  0.10201824  0.13028350  0.99111025    -0.80900
C93         C  0.43376975  0.46221210  0.91655445     0.87300
O94         O  0.01580702  0.06226126  0.95922487    -0.88000
O95         O  0.45296066  0.01519665  0.03403685    -0.88100
O96         O  0.99658208  0.05637742  0.08465083    -0.75200
Mg97       Mg  0.45260281  0.40899284  0.96495834     1.58000
O98         O  0.36586134  0.39661748  0.02445383    -0.82500
H99         H  0.05531339  0.47847032  0.88468741    -0.06300
O100        O  0.06221731  0.04646097  0.03554981    -0.87800
H101        H  0.07275099  0.05375662  0.11321317    -0.06100
H102        H  0.01986018  0.07240455  0.88149076    -0.06300
C103        C  0.06501630  0.03529386  0.07953762     0.87300
C104        C  0.03637942  0.46838984  0.91781602     0.87900
C105        C  0.03012299  0.06463126  0.91564076     0.87900
H106        H  0.44453395  0.02011612  0.11071750    -0.06200
O107        O  0.44463071  0.44116263  0.08622555    -0.75300
Mg108      Mg  0.04708324  0.08910489  0.03048292     1.58000
H109        H  0.48059999  0.42542915  0.11363994    -0.06300
C110        C  0.13148101  0.99858514  0.01376768     0.92900
O111        O  0.13419010  0.10173346  0.97646026    -0.82500
C112        C  0.13275918  0.13104649  0.98518767     0.93000
O113        O  0.46795435  0.36408371  0.97523189    -0.82500
Mg114      Mg  0.41062510  0.45716821  0.03162494     1.58200
O115        O  0.13024484  0.02829578  0.00877513    -0.80800
O116        O  0.39752591  0.03042099  0.97290511    -0.82500
O117        O  0.04625335  0.48502280  0.46365466    -0.88100
C118        C  0.46886195  0.43508323  0.58241027     0.87900
Mg119      Mg  0.08921010  0.04299303  0.46688737     1.58100
O120        O  0.43650492  0.45375670  0.46310205    -0.87800
O121        O  0.50232312  0.44383946  0.41336386    -0.75200
C122        C  0.50051024  0.13376851  0.51398805     0.93000
O123        O  0.05893573  0.50451954  0.58855100    -0.75000
O124        O  0.03163920  0.13584760  0.52298509    -0.82500
Mg125      Mg  0.04126293  0.45362584  0.53457932     1.58000
C126        C  0.36783919  0.00210482  0.48509361     0.92900
O127        O  0.02750188  0.39859122  0.49517185    -0.80700
H128        H  0.42526540  0.44632551  0.38561395    -0.06100
C129        C  0.46365286  0.03146453  0.58131828     0.87800
O130        O  0.05571818  0.06017096  0.41274455    -0.75300
O131        O  0.48320454  0.43795554  0.53871256    -0.88000
O132        O  0.36884522  0.47243443  0.49160655    -0.80800
C133        C  0.36610685  0.36994975  0.51435926     0.93000
C134        C  0.49782536  0.36788831  0.48691350     0.92900
Mg135      Mg  0.45727121  0.04846339  0.46691773     1.58000
O136        O  0.47070413  0.10289865  0.50754093    -0.80800
O137        O  0.44040772  0.99790075  0.41264857    -0.75000
O138        O  0.39665150  0.37047739  0.50722038    -0.80800
O139        O  0.10101378  0.46848848  0.52396550    -0.82500
O140        O  0.10202687  0.13152547  0.49306206    -0.80900
C141        C  0.43347816  0.46489959  0.41921369     0.87300
O142        O  0.01538172  0.06412874  0.46307402    -0.88000
O143        O  0.45231672  0.01704649  0.53751421    -0.88100
O144        O  0.99687967  0.05761705  0.58789017    -0.75200
Mg145      Mg  0.45168803  0.41110184  0.46763851     1.58000
O146        O  0.36475016  0.39919887  0.52357573    -0.82500
H147        H  0.05431804  0.47996618  0.38686862    -0.06300
O148        O  0.06322494  0.04874572  0.53788912    -0.87800
H149        H  0.07528753  0.05655765  0.61512270    -0.06100
H150        H  0.01951607  0.07580124  0.38584042    -0.06300
C151        C  0.06648736  0.03774928  0.58175105     0.87300
C152        C  0.03543390  0.47012453  0.42006380     0.87900
C153        C  0.02970258  0.06732231  0.41932316     0.87900
H154        H  0.44511124  0.02125078  0.61487220    -0.06200
O155        O  0.44288872  0.44235473  0.58864641    -0.75300
Mg156      Mg  0.04733997  0.09101269  0.53349402     1.58000
H157        H  0.47903152  0.42683180  0.61616078    -0.06300
C158        C  0.13055517  0.99855346  0.51318884     0.92900
O159        O  0.13446713  0.10326379  0.47679501    -0.82500
C160        C  0.13274677  0.13233415  0.48619067     0.93000
O161        O  0.46689098  0.36613261  0.47759432    -0.82500
Mg162      Mg  0.40972091  0.45917196  0.53329716     1.58200
O163        O  0.13056347  0.02867818  0.50506613    -0.80800
O164        O  0.39694481  0.03306713  0.47651491    -0.82500
N165        N  0.28984531  0.00462601  0.05214964    -0.36400
N166        N  0.21956833  0.00391932  0.05984440    -0.56900
N167        N  0.21309420  0.00079510  0.94473432    -0.36400
N168        N  0.28197510  0.99865944  0.93705792    -0.56900
C169        C  0.28416575  0.00029099  0.10518167     0.27200
C170        C  0.31698431  0.99689496  0.03963795     0.27200
C171        C  0.17867812  0.99405536  0.95819942     0.27200
C172        C  0.21257242  0.99295952  0.89251162     0.27200
C173        C  0.23058699  0.01157151  0.11081851     0.35800
C174        C  0.18973019  0.00846264  0.05485621     0.35800
C175        C  0.31687855  0.00436804  0.94149011     0.35800
C176        C  0.27713010  0.00350028  0.88545419     0.35800
C177        C  0.30865088  0.99048741  0.12697899    -0.21700
C178        C  0.32940308  0.98846879  0.08580926    -0.21700
C179        C  0.15608621  0.98230886  0.91346673    -0.21700
C180        C  0.17748099  0.98168735  0.87209794    -0.21700
C181        C  0.20763382  0.02108199  0.13821038    -0.22700
C182        C  0.18166933  0.01896503  0.10278332    -0.22700
C183        C  0.33402666  0.01228862  0.89247485    -0.22700
C184        C  0.30894743  0.01191164  0.85704990    -0.22700
C185        C  0.25842300  0.00630478  0.13449909    -0.18100
C186        C  0.33260692  0.99995370  0.98837703    -0.18100
C187        C  0.24352390  0.99754399  0.86255488    -0.18100
C188        C  0.16785846  0.00045277  0.00883640    -0.18100
H189        H  0.31157294  0.98569835  0.16834188     0.14900
H190        H  0.35144593  0.98195872  0.08972527     0.14900
H191        H  0.12729542  0.97538325  0.91068654     0.14900
H192        H  0.16833231  0.97409381  0.83154497     0.14900
H193        H  0.20888555  0.02798594  0.17975017     0.13100
H194        H  0.15907317  0.02397736  0.11156660     0.13100
H195        H  0.36157173  0.01739984  0.88288112     0.13100
H196        H  0.31352065  0.01669985  0.81495413     0.13100
H197        H  0.27856825  0.01593101  0.02675943     0.26400
H198        H  0.23666549  0.01382550  0.96838863     0.26400
N199        N  0.28165482  0.00037742  0.43807461    -0.36400
N200        N  0.21094231  0.99819701  0.44443701    -0.56900
N201        N  0.21550066  0.99712251  0.55929377    -0.36400
N202        N  0.28536124  0.99776773  0.55292225    -0.56900
C203        C  0.27009251  0.99243962  0.38727164     0.27200
C204        C  0.30965450  0.99303444  0.44417982     0.27200
C205        C  0.18007785  0.98967673  0.55316813     0.27200
C206        C  0.21905348  0.98864878  0.60978615     0.27200
C207        C  0.21702224  0.00411715  0.39172085     0.35800
C208        C  0.18253973  0.00397431  0.45686877     0.35800
C209        C  0.32020428  0.00542746  0.54080562     0.35800
C210        C  0.28476383  0.00308523  0.60570488     0.35800
C211        C  0.29088271  0.97974123  0.36098701    -0.21700
C212        C  0.31590794  0.98017754  0.39694807    -0.21700
C213        C  0.16090155  0.97624971  0.60031607    -0.21700
C214        C  0.18544123  0.97549393  0.63592817    -0.21700
C215        C  0.19184845  0.01301220  0.37012013    -0.22700
C216        C  0.16996587  0.01284967  0.41124881    -0.22700
C217        C  0.34181263  0.01528683  0.58641711    -0.22700
C218        C  0.31932160  0.01378657  0.62753312    -0.22700
C219        C  0.24370012  0.99950820  0.36276623    -0.18100
C220        C  0.33167215  0.00062524  0.48996214    -0.18100
C221        C  0.25269675  0.99621643  0.63444645    -0.18100
C222        C  0.16588680  0.99815376  0.50784465    -0.18100
H223        H  0.28879346  0.97170248  0.31982613     0.14900
H224        H  0.33679210  0.97255832  0.38893769     0.14900
H225        H  0.13251165  0.96873239  0.60907450     0.14900
H226        H  0.17941344  0.96731383  0.67696044     0.14900
H227        H  0.18919472  0.01850731  0.32896929     0.13100
H228        H  0.14699551  0.01800937  0.40761574     0.13100
H229        H  0.37059060  0.02226320  0.58984144     0.13100
H230        H  0.32732073  0.01947242  0.66877439     0.13100
H231        H  0.27450206  0.01470812  0.46477665     0.26400
H232        H  0.23713953  0.01204567  0.53307132     0.26400
N233        N  0.21222802  0.21398153  0.05334597    -0.36400
N234        N  0.22096530  0.21400825  0.93894739    -0.56900
N235        N  0.29112260  0.28318871  0.94699271    -0.36400
N236        N  0.28126744  0.28422121  0.06163795    -0.56900
C237        C  0.17780868  0.18646089  0.03888994     0.27200
C238        C  0.21062170  0.22324789  0.10448869     0.27200
C239        C  0.28536346  0.28162862  0.89393052     0.27200
C240        C  0.31743477  0.31841362  0.95936074     0.27200
C241        C  0.19053348  0.18005418  0.94380535     0.35800
C242        C  0.23203662  0.21688676  0.88815069     0.35800
C243        C  0.27595933  0.27504444  0.11333491     0.35800
C244        C  0.31680126  0.31207628  0.05736416     0.35800
C245        C  0.15412067  0.17793549  0.08191448    -0.21700
C246        C  0.17471393  0.20123051  0.12297103    -0.21700
C247        C  0.30884898  0.31612576  0.87214547    -0.21700
C248        C  0.32907593  0.33932721  0.91336031    -0.21700
C249        C  0.18211666  0.16140512  0.89574109    -0.22700
C250        C  0.20844699  0.18466589  0.86058444    -0.22700
C251        C  0.30839589  0.29709548  0.14182322    -0.22700
C252        C  0.33419758  0.32079769  0.10631828    -0.22700
C253        C  0.16808253  0.16710674  0.98937098    -0.18100
C254        C  0.24144618  0.24913894  0.13573340    -0.18100
C255        C  0.33281265  0.33152892  0.01049551    -0.18100
C256        C  0.26023346  0.24961474  0.86460312    -0.18100
H257        H  0.12508870  0.15675266  0.08411440     0.14900
H258        H  0.16459695  0.20134850  0.16235142     0.14900
H259        H  0.31125760  0.32376889  0.83082276     0.14900
H260        H  0.35013964  0.36828054  0.90977832     0.14900
H261        H  0.15872703  0.13440013  0.88621517     0.13100
H262        H  0.20929224  0.17893457  0.81898502     0.13100
H263        H  0.31294571  0.29655413  0.18391590     0.13100
H264        H  0.36243670  0.34212021  0.11548003     0.13100
H265        H  0.23639638  0.22274133  0.03172584     0.26400
H266        H  0.28051262  0.26076433  0.97260802     0.26400
N267        N  0.21514481  0.22024764  0.44037336    -0.36400
N268        N  0.28343783  0.29097049  0.44686848    -0.56900
N269        N  0.28317023  0.28248773  0.56169033    -0.36400
N270        N  0.21345449  0.21270979  0.55481950    -0.56900
C271        C  0.21666422  0.23355133  0.39119098     0.27200
C272        C  0.18004860  0.19199922  0.44747150     0.27200
C273        C  0.31120442  0.31787676  0.55676133     0.27200
C274        C  0.27381718  0.27701584  0.61340495     0.27200
C275        C  0.28176695  0.28583172  0.39369572     0.35800
C276        C  0.31817349  0.31884975  0.45849813     0.35800
C277        C  0.18549631  0.17841749  0.54179021     0.35800
C278        C  0.22071383  0.21207020  0.60697043     0.35800
C279        C  0.18199996  0.21382792  0.36710009    -0.21700
C280        C  0.15891236  0.18743630  0.40257805    -0.21700
C281        C  0.32014232  0.33497975  0.60597922    -0.21700
C282        C  0.29649984  0.30927200  0.64167600    -0.21700
C283        C  0.31553102  0.31088083  0.37122648    -0.22700
C284        C  0.33845808  0.33202055  0.41211983    -0.22700
C285        C  0.17460620  0.15591742  0.58624865    -0.22700
C286        C  0.19683999  0.17728854  0.62754300    -0.22700
C287        C  0.24935948  0.26008591  0.36539110    -0.18100
C288        C  0.16761025  0.16832487  0.49157629    -0.18100
C289        C  0.24729939  0.24309282  0.63657566    -0.18100
C290        C  0.33089299  0.33417138  0.50984720    -0.18100
H291        H  0.17440292  0.21740384  0.32744845     0.14900
H292        H  0.13006668  0.16677577  0.39564786     0.14900
H293        H  0.34190400  0.36286268  0.61554699     0.14900
H294        H  0.29661552  0.31373307  0.68388921     0.14900
H295        H  0.32268851  0.31400702  0.32967470     0.13100
H296        H  0.36676648  0.35463452  0.40802201     0.13100
H297        H  0.15247733  0.12732290  0.58890433     0.13100
H298        H  0.19541793  0.16836808  0.66809962     0.13100
H299        H  0.23787119  0.22633254  0.46449767     0.26400
H300        H  0.27412414  0.26216113  0.53259552     0.26400
C301        C  0.23352441  0.25758013  0.78096848    -0.08900
C302        C  0.25984187  0.25085588  0.80573855     0.07300
C303        C  0.28030275  0.23919918  0.77484531     0.00500
C304        C  0.27443148  0.23476662  0.72002016    -0.07100
C305        C  0.24793395  0.24131885  0.69534910     0.06400
C306        C  0.22749919  0.25293843  0.72631347    -0.02200
Br307      Br  0.19198990  0.26393054  0.69523344    -0.01900
H308        H  0.21705757  0.26574443  0.80454352     0.10300
H309        H  0.29103313  0.22682948  0.69634791     0.08300
Br310      Br  0.31579152  0.22826218  0.80610125    -0.02300
C311        C  0.24307433  0.22624175  0.28094077    -0.08900
C312        C  0.24872831  0.25881548  0.30615311     0.07300
C313        C  0.24839173  0.28672911  0.27520206    -0.02700
C314        C  0.24354524  0.28215551  0.22011370    -0.07100
C315        C  0.23867192  0.24981871  0.19481071     0.06400
C316        C  0.23787294  0.22150505  0.22608092    -0.02200
Br317      Br  0.23113353  0.17637895  0.19551647    -0.01900
H318        H  0.24223453  0.20408610  0.30437190     0.10300
H319        H  0.24461674  0.30437796  0.19659780     0.08300
Br320      Br  0.25337601  0.33095005  0.30657802    -0.02300
C321        C  0.25451654  0.02878487  0.77520368    -0.08900
C322        C  0.24163360  0.99572078  0.80369136     0.07300
C323        C  0.23499041  0.46338615  0.77661134    -0.02700
C324        C  0.24058456  0.46428692  0.72182685    -0.07100
C325        C  0.25337793  0.99735339  0.69335526     0.06400
C326        C  0.26049621  0.02979564  0.72055712    -0.02200
Br327      Br  0.27879484  0.07612222  0.68442811    -0.01900
H328        H  0.26119883  0.05416067  0.79592297     0.10300
H329        H  0.23435004  0.43901573  0.70118276     0.08300
Br330      Br  0.21941756  0.41773337  0.81341754    -0.02300
C331        C  0.22917470  0.47198854  0.21750037    -0.08900
C332        C  0.25758516  0.00404786  0.19344199     0.07300
C333        C  0.28000700  0.03530137  0.22512494    -0.02700
C334        C  0.27383125  0.03401566  0.27985487    -0.07100
C335        C  0.24513726  0.00197940  0.30381859     0.06400
C336        C  0.22292942  0.47076709  0.27210107    -0.02200
Br337      Br  0.18457991  0.42542430  0.30205719    -0.01900
H338        H  0.21124929  0.44802466  0.19338752     0.10300
H339        H  0.29184375  0.05789981  0.30403645     0.08300
Br340      Br  0.31860346  0.08043425  0.19491472    -0.02300
C341        C  0.47209804  0.24855992  0.77934078    -0.08900
C342        C  0.50048767  0.24506012  0.80425669     0.07300
C343        C  0.03018346  0.24819627  0.77364695    -0.02700
C344        C  0.03100899  0.25458514  0.71914424    -0.07100
C345        C  0.50233168  0.25757593  0.69409627     0.06400
C346        C  0.47281445  0.25475064  0.72482747    -0.02200
Br347      Br  0.43235922  0.25803837  0.69392286    -0.01900
H348        H  0.44962295  0.24717249  0.80275917     0.10300
H349        H  0.05345617  0.25592030  0.69572207     0.08300
Br350      Br  0.07034364  0.24441117  0.80460781    -0.02300
C351        C  0.03236641  0.27359509  0.27939031    -0.08900
C352        C  0.50015624  0.24582152  0.30431591     0.07300
C353        C  0.46886053  0.22260724  0.27301431    -0.02700
C354        C  0.47013129  0.22720875  0.21796245    -0.07100
C355        C  0.50220517  0.25505571  0.19308682     0.06400
C356        C  0.03363855  0.27816990  0.22425034    -0.02200
Br357      Br  0.07901930  0.31555453  0.19280778    -0.01900
H358        H  0.05640344  0.29209687  0.30307387     0.10300
H359        H  0.44604840  0.20878066  0.19429307     0.08300
Br360      Br  0.42341591  0.18514515  0.30408959    -0.02300
N361        N  0.00113366  0.71726243  0.05891906    -0.36400
N362        N  0.50308689  0.78780997  0.05295543    -0.56900
N363        N  0.00073961  0.78200483  0.93855339    -0.36400
N364        N  0.00047951  0.71242141  0.94443335    -0.56900
C365        C  0.51064049  0.72964389  0.10920041     0.27200
C366        C  0.00857031  0.68941918  0.05228416     0.27200
C367        C  0.50848349  0.81736605  0.94486253     0.27200
C368        C  0.00961778  0.77876705  0.88825820     0.27200
C369        C  0.49721331  0.78134384  0.10554447     0.35800
C370        C  0.49532555  0.81486493  0.04091792     0.35800
C371        C  0.99330566  0.67780665  0.95630134     0.35800
C372        C  0.99490748  0.71317808  0.89173960     0.35800
C373        C  0.52433845  0.70952598  0.13474933    -0.21700
C374        C  0.02289489  0.68404812  0.09895194    -0.21700
C375        C  0.52252594  0.83690919  0.89829963    -0.21700
C376        C  0.02351581  0.81260279  0.86260347    -0.21700
C377        C  0.48614797  0.80476835  0.12730828    -0.22700
C378        C  0.48491471  0.82600145  0.08636324    -0.22700
C379        C  0.98342243  0.65647666  0.91044230    -0.22700
C380        C  0.98431771  0.67886721  0.86964663    -0.22700
C381        C  0.50370691  0.75589356  0.13419725    -0.18100
C382        C  0.99981594  0.66688863  0.00668374    -0.18100
C383        C  0.00184892  0.74531242  0.86327123    -0.18100
C384        C  0.50035628  0.83142591  0.99027355    -0.18100
H385        H  0.53355320  0.71226182  0.17545208     0.14900
H386        H  0.03076976  0.66344578  0.10712915     0.14900
H387        H  0.53066079  0.86552484  0.89058617     0.14900
H388        H  0.03249352  0.81889869  0.82187817     0.14900
H389        H  0.47990441  0.80654150  0.16839638     0.13100
H390        H  0.47763247  0.84747487  0.08976532     0.13100
H391        H  0.97717637  0.62808483  0.90634715     0.13100
H392        H  0.97870887  0.67107932  0.82834031     0.13100
H393        H  0.98584383  0.72393170  0.03314907     0.26400
H394        H  0.98551550  0.76031044  0.96458117     0.26400
N395        N  0.49611518  0.71209465  0.44557459    -0.36400
N396        N  0.49873634  0.71791018  0.56064605    -0.56900
N397        N  0.49853689  0.78741369  0.55341482    -0.36400
N398        N  0.49823735  0.78293676  0.43841965    -0.56900
C399        C  0.50358454  0.68493179  0.45859788     0.27200
C400        C  0.50308031  0.71930666  0.39320079     0.27200
C401        C  0.50673246  0.78749552  0.60540408     0.27200
C402        C  0.50674254  0.82219390  0.54017871     0.27200
C403        C  0.49241929  0.68296184  0.55573229     0.35800
C404        C  0.49247923  0.72204632  0.61186687     0.35800
C405        C  0.49155654  0.77245511  0.38710721     0.35800
C406        C  0.49197733  0.81162322  0.44378970     0.35800
C407        C  0.51468584  0.67413279  0.41342508    -0.21700
C408        C  0.51438447  0.69579838  0.37227920    -0.21700
C409        C  0.52022609  0.82283969  0.62582983    -0.21700
C410        C  0.52011294  0.84469625  0.58484853    -0.21700
C411        C  0.48218003  0.66479690  0.60389078    -0.22700
C412        C  0.48190363  0.68945565  0.63942522    -0.22700
C413        C  0.48118478  0.79469222  0.35976016    -0.22700
C414        C  0.48150615  0.81952516  0.39561904    -0.22700
C415        C  0.49873241  0.66829120  0.50939583    -0.18100
C416        C  0.49784408  0.74534640  0.36348440    -0.18100
C417        C  0.49916944  0.83299748  0.49025629    -0.18100
C418        C  0.50005838  0.75589519  0.63531810    -0.18100
H419        H  0.52201790  0.65267767  0.41030893     0.14900
H420        H  0.52144279  0.69424051  0.33152019     0.14900
H421        H  0.52859044  0.83177192  0.66627881     0.14900
H422        H  0.52834523  0.87369442  0.58812380     0.14900
H423        H  0.47602783  0.63687474  0.61265633     0.13100
H424        H  0.47552635  0.68421538  0.68110656     0.13100
H425        H  0.47471636  0.79361149  0.31805141     0.13100
H426        H  0.47560097  0.84143901  0.38671709     0.13100
H427        H  0.48334826  0.72258258  0.47004423     0.26400
H428        H  0.48376500  0.76383075  0.52985418     0.26400
O429        O  0.04713448  0.98302000  0.96165961    -0.88100
C430        C  0.47025633  0.93340869  0.07993843     0.87900
Mg431      Mg  0.08946343  0.54126109  0.96602270     1.58100
O432        O  0.43683096  0.95126984  0.96071517    -0.87800
O433        O  0.50328903  0.94206114  0.91093599    -0.75200
C434        C  0.50082089  0.63191192  0.01050269     0.93000
O435        O  0.05847066  0.00237222  0.08613408    -0.75000
O436        O  0.03166302  0.63359805  0.02009299    -0.82500
Mg437      Mg  0.04217776  0.95169487  0.03231918     1.58000
C438        C  0.36822039  0.50013276  0.98388503     0.92900
O439        O  0.02864965  0.89679903  0.99294272    -0.80700
H440        H  0.42550583  0.94339256  0.88328976    -0.06100
C441        C  0.46349958  0.53005168  0.07762440     0.87800
O442        O  0.05612365  0.55740668  0.90993328    -0.75300
O443        O  0.48414982  0.93563593  0.03609153    -0.88000
O444        O  0.36874810  0.97030303  0.99253832    -0.80800
C445        C  0.36756889  0.86762453  0.01457534     0.93000
C446        C  0.49889930  0.86604209  0.98529798     0.92900
Mg447      Mg  0.45765535  0.54616703  0.96289074     1.58000
O448        O  0.47109380  0.60127381  0.00193816    -0.80800
O449        O  0.44087072  0.49526229  0.90948265    -0.75000
O450        O  0.39797160  0.86855385  0.00462086    -0.80800
O451        O  0.10251664  0.96744314  0.02202331    -0.82500
O452        O  0.10200307  0.63031965  0.99114509    -0.80900
C453        C  0.43376095  0.96216951  0.91665524     0.87300
O454        O  0.01579180  0.56230638  0.95920561    -0.88000
O455        O  0.45292699  0.51518549  0.03397744    -0.88100
O456        O  0.99653276  0.55635391  0.08462396    -0.75200
Mg457      Mg  0.45261538  0.90899196  0.96509447     1.58000
O458        O  0.36588766  0.89663606  0.02460127    -0.82500
H459        H  0.05530938  0.97841110  0.88475389    -0.06300
O460        O  0.06218276  0.54647108  0.03551274    -0.87800
H461        H  0.07265652  0.55371581  0.11319292    -0.06100
H462        H  0.01985256  0.57246757  0.88147596    -0.06300
C463        C  0.06494725  0.53527417  0.07949578     0.87300
C464        C  0.03638307  0.96834874  0.91789211     0.87900
C465        C  0.03011055  0.56468370  0.91562049     0.87900
H466        H  0.44447975  0.52007548  0.11065948    -0.06200
O467        O  0.44468380  0.94120076  0.08634957    -0.75300
Mg468      Mg  0.04705455  0.58911371  0.03049062     1.58000
H469        H  0.48066950  0.92548816  0.11376306    -0.06300
C470        C  0.13145488  0.49862642  0.01377546     0.92900
O471        O  0.13417569  0.60178169  0.97640533    -0.82500
C472        C  0.13274461  0.63109296  0.98515447     0.93000
O473        O  0.46795327  0.86408659  0.97538809    -0.82500
Mg474      Mg  0.41066309  0.95718434  0.03174349     1.58200
O475        O  0.13021331  0.52833469  0.00878904    -0.80800
O476        O  0.39749449  0.53043544  0.97291515    -0.82500
O477        O  0.04625990  0.98500901  0.46372819    -0.88100
C478        C  0.46888730  0.93512677  0.58250716     0.87900
Mg479      Mg  0.08921087  0.54301041  0.46685010     1.58100
O480        O  0.43652910  0.95374425  0.46316399    -0.87800
O481        O  0.50233703  0.94381029  0.41344903    -0.75200
C482        C  0.50050758  0.63376745  0.51407863     0.93000
O483        O  0.05895690  0.00454731  0.58861899    -0.75000
O484        O  0.03164117  0.63585134  0.52305280    -0.82500
Mg485      Mg  0.04128101  0.95363974  0.53467737     1.58000
C486        C  0.36785088  0.50215278  0.48509727     0.92900
O487        O  0.02752754  0.89860387  0.49530821    -0.80700
H488        H  0.42525811  0.94626819  0.38568681    -0.06100
C489        C  0.46365783  0.53145191  0.58131521     0.87800
O490        O  0.05572457  0.56020885  0.41273043    -0.75300
O491        O  0.48322412  0.93796718  0.53881216    -0.88000
O492        O  0.36885038  0.97239097  0.49154721    -0.80800
C493        C  0.36613332  0.86994104  0.51440750     0.93000
C494        C  0.49785749  0.86789826  0.48704339     0.92900
Mg495      Mg  0.45728607  0.54849052  0.46693047     1.58000
O496        O  0.47070444  0.60289687  0.50762468    -0.80800
O497        O  0.44043088  0.49795102  0.41262168    -0.75000
O498        O  0.39668283  0.87046815  0.50733303    -0.80800
O499        O  0.10102239  0.96849526  0.52404325    -0.82500
O500        O  0.10203538  0.63154433  0.49309020    -0.80900
C501        C  0.43347780  0.96485907  0.41926751     0.87300
O502        O  0.01539356  0.56415656  0.46308555    -0.88000
O503        O  0.45232350  0.51704516  0.53750428    -0.88100
O504        O  0.99688379  0.55760427  0.58789622    -0.75200
Mg505      Mg  0.45171104  0.91109114  0.46773892     1.58000
O506        O  0.36477300  0.89919117  0.52359412    -0.82500
H507        H  0.05433251  0.97993212  0.38695191    -0.06300
O508        O  0.06322853  0.54874824  0.53786371    -0.87800
H509        H  0.07527333  0.55652047  0.61510422    -0.06100
H510        H  0.01952741  0.57585568  0.38586113    -0.06300
C511        C  0.06647692  0.53772779  0.58171437     0.87300
C512        C  0.03544594  0.97009820  0.42014459     0.87900
C513        C  0.02971314  0.56736365  0.41933030     0.87900
H514        H  0.44511499  0.52122849  0.61486703    -0.06200
O515        O  0.44290885  0.94239463  0.58871474    -0.75300
Mg516      Mg  0.04734692  0.59101810  0.53351344     1.58000
H517        H  0.47906686  0.92690698  0.61628030    -0.06300
C518        C  0.13054930  0.49855445  0.51314493     0.92900
O519        O  0.13447345  0.60328530  0.47678260    -0.82500
C520        C  0.13275474  0.63235488  0.48620011     0.93000
O521        O  0.46691954  0.86613233  0.47771955    -0.82500
Mg522      Mg  0.40972778  0.95916820  0.53332000     1.58200
O523        O  0.13055408  0.52867843  0.50502798    -0.80800
O524        O  0.39696373  0.53310306  0.47649249    -0.82500
N525        N  0.28980654  0.50462162  0.05212806    -0.36400
N526        N  0.21953003  0.50392497  0.05984592    -0.56900
N527        N  0.21307097  0.50085573  0.94473223    -0.36400
N528        N  0.28194187  0.49869724  0.93704253    -0.56900
C529        C  0.28411551  0.50026174  0.10515517     0.27200
C530        C  0.31692719  0.49686619  0.03960012     0.27200
C531        C  0.17865954  0.49412896  0.95819739     0.27200
C532        C  0.21254999  0.49303543  0.89250272     0.27200
C533        C  0.23055297  0.51156818  0.11081969     0.35800
C534        C  0.18969556  0.50847662  0.05487173     0.35800
C535        C  0.31685251  0.50442299  0.94147455     0.35800
C536        C  0.27710705  0.50357642  0.88544885     0.35800
C537        C  0.30857059  0.49041121  0.12693410    -0.21700
C538        C  0.32931667  0.48838983  0.08575576    -0.21700
C539        C  0.15607439  0.48241492  0.91345714    -0.21700
C540        C  0.17746606  0.48179302  0.87208513    -0.21700
C541        C  0.20760214  0.52107524  0.13822692    -0.22700
C542        C  0.18163662  0.51896779  0.10280918    -0.22700
C543        C  0.33401820  0.51240207  0.89247125    -0.22700
C544        C  0.30893969  0.51203519  0.85705270    -0.22700
C545        C  0.25839486  0.50630238  0.13448378    -0.18100
C546        C  0.33256607  0.49995909  0.98834250    -0.18100
C547        C  0.24349688  0.49760716  0.86254509    -0.18100
C548        C  0.16783454  0.50050011  0.00884574    -0.18100
H549        H  0.31147576  0.48559141  0.16829008     0.14900
H550        H  0.35133843  0.48184816  0.08965535     0.14900
H551        H  0.12728901  0.47550723  0.91067509     0.14900
H552        H  0.16832032  0.47421927  0.83152723     0.14900
H553        H  0.20885746  0.52797406  0.17976925     0.13100
H554        H  0.15904620  0.52398712  0.11160153     0.13100
H555        H  0.36157335  0.51754150  0.88287965     0.13100
H556        H  0.31352390  0.51686221  0.81496498     0.13100
H557        H  0.27855708  0.51596693  0.02676100     0.26400
H558        H  0.23663758  0.51385892  0.96839780     0.26400
N559        N  0.28169819  0.50047643  0.43804980    -0.36400
N560        N  0.21098593  0.49828767  0.44441400    -0.56900
N561        N  0.21549249  0.49711884  0.55926239    -0.36400
N562        N  0.28536098  0.49779252  0.55290232    -0.56900
C563        C  0.27014529  0.49255528  0.38724177     0.27200
C564        C  0.30969044  0.49312339  0.44415496     0.27200
C565        C  0.18006120  0.48964282  0.55311196     0.27200
C566        C  0.21902524  0.48859466  0.60973594     0.27200
C567        C  0.21708069  0.50423842  0.39170575     0.35800
C568        C  0.18257469  0.50404942  0.45685067     0.35800
C569        C  0.32021754  0.50549494  0.54078575     0.35800
C570        C  0.28475613  0.50311087  0.60568467     0.35800
C571        C  0.29093772  0.47986151  0.36095108    -0.21700
C572        C  0.31595209  0.48028018  0.39691638    -0.21700
C573        C  0.16085709  0.47613825  0.60022253    -0.21700
C574        C  0.18539033  0.47537069  0.63583873    -0.21700
C575        C  0.19191271  0.51314444  0.37011433    -0.22700
C576        C  0.17001636  0.51295497  0.41124176    -0.22700
C577        C  0.34182947  0.51538724  0.58639541    -0.22700
C578        C  0.31932546  0.51386145  0.62751127    -0.22700
C579        C  0.24375277  0.49962651  0.36274472    -0.18100
C580        C  0.33169387  0.50069471  0.48994718    -0.18100
C581        C  0.25267084  0.49619430  0.63442192    -0.18100
C582        C  0.16588888  0.49816684  0.50780972    -0.18100
H583        H  0.28885653  0.47183526  0.31978569     0.14900
H584        H  0.33683425  0.47265830  0.38890529     0.14900
H585        H  0.13245257  0.46857837  0.60895709     0.14900
H586        H  0.17934299  0.46713925  0.67685053     0.14900
H587        H  0.18926770  0.51865793  0.32896872     0.13100
H588        H  0.14704058  0.51810638  0.40761033     0.13100
H589        H  0.37061926  0.52240338  0.58981796     0.13100
H590        H  0.32732364  0.51956147  0.66875123     0.13100
H591        H  0.27454023  0.51479690  0.46476448     0.26400
H592        H  0.23714624  0.51209891  0.53308327     0.26400
N593        N  0.21221472  0.71400340  0.05334961    -0.36400
N594        N  0.22096490  0.71407896  0.93894427    -0.56900
N595        N  0.29114760  0.78323579  0.94704676    -0.36400
N596        N  0.28126978  0.78422026  0.06169879    -0.56900
C597        C  0.17779148  0.68650106  0.03887081     0.27200
C598        C  0.21060651  0.72324803  0.10450445     0.27200
C599        C  0.28540739  0.78169102  0.89397949     0.27200
C600        C  0.31746100  0.81845511  0.95944503     0.27200
C601        C  0.19053868  0.68011697  0.94378871     0.35800
C602        C  0.23207668  0.71695239  0.88816750     0.35800
C603        C  0.27595228  0.77502053  0.11338780     0.35800
C604        C  0.31680514  0.81207580  0.05744679     0.35800
C605        C  0.15409954  0.67796658  0.08189293    -0.21700
C606        C  0.17469388  0.70123604  0.12297025    -0.21700
C607        C  0.30890640  0.81619414  0.87222044    -0.21700
C608        C  0.32912143  0.83938226  0.91345723    -0.21700
C609        C  0.18216300  0.66146107  0.89573324    -0.22700
C610        C  0.20851573  0.68472237  0.86059929    -0.22700
C611        C  0.30838574  0.79705519  0.14189166    -0.22700
C612        C  0.33419354  0.82077317  0.10640677    -0.22700
C613        C  0.16806905  0.66715977  0.98934046    -0.18100
C614        C  0.24143123  0.74911765  0.13577007    -0.18100
C615        C  0.33282598  0.83155017  0.01059530    -0.18100
C616        C  0.26028451  0.74968155  0.86463132    -0.18100
H617        H  0.12506454  0.65679167  0.08408214     0.14900
H618        H  0.16457393  0.70133924  0.16235377     0.14900
H619        H  0.31133325  0.82384912  0.83090121     0.14900
H620        H  0.35019221  0.86833477  0.90989748     0.14900
H621        H  0.15879304  0.63444545  0.88620027     0.13100
H622        H  0.20939895  0.67898178  0.81901311     0.13100
H623        H  0.31292864  0.79649540  0.18398305     0.13100
H624        H  0.36243134  0.84209070  0.11558620     0.13100
H625        H  0.23638404  0.72276182  0.03173323     0.26400
H626        H  0.28052329  0.76080299  0.97264625     0.26400
N627        N  0.21515659  0.72027143  0.44040883    -0.36400
N628        N  0.28346988  0.79097048  0.44689791    -0.56900
N629        N  0.28317324  0.78249706  0.56171572    -0.36400
N630        N  0.21345215  0.71273271  0.55484313    -0.56900
C631        C  0.21668069  0.73358386  0.39123142     0.27200
C632        C  0.18005350  0.69203523  0.44750565     0.27200
C633        C  0.31119942  0.81789012  0.55678106     0.27200
C634        C  0.27378954  0.77704494  0.61342168     0.27200
C635        C  0.28180607  0.78581342  0.39372967     0.35800
C636        C  0.31821601  0.81882548  0.45853597     0.35800
C637        C  0.18551158  0.67843344  0.54180327     0.35800
C638        C  0.22071862  0.71208935  0.60699052     0.35800
C639        C  0.18201134  0.71388554  0.36714814    -0.21700
C640        C  0.15891605  0.68749455  0.40262246    -0.21700
C641        C  0.32009683  0.83501565  0.60598326    -0.21700
C642        C  0.29643974  0.80931727  0.64167808    -0.21700
C643        C  0.31558810  0.81082619  0.37126911    -0.22700
C644        C  0.33851913  0.83196166  0.41216614    -0.22700
C645        C  0.17464125  0.65592384  0.58625068    -0.22700
C646        C  0.19686806  0.67729748  0.62755049    -0.22700
C647        C  0.24938743  0.76008772  0.36542492    -0.18100
C648        C  0.16761862  0.66834647  0.49159384    -0.18100
C649        C  0.24728606  0.74311999  0.63660058    -0.18100
C650        C  0.33091988  0.83416334  0.50988165    -0.18100
H651        H  0.17441787  0.71747111  0.32749928     0.14900
H652        H  0.13006669  0.66684493  0.39569305     0.14900
H653        H  0.34184317  0.86290647  0.61554490     0.14900
H654        H  0.29652765  0.81379419  0.68388259     0.14900
H655        H  0.32275435  0.81393165  0.32972108     0.13100
H656        H  0.36684037  0.85455176  0.40807677     0.13100
H657        H  0.15252839  0.62732173  0.58889623     0.13100
H658        H  0.19545590  0.66837231  0.66810248     0.13100
H659        H  0.23787933  0.72633392  0.46451944     0.26400
H660        H  0.27416282  0.76215891  0.53264843     0.26400
C661        C  0.23357608  0.75765621  0.78100305    -0.08900
C662        C  0.25989486  0.75092776  0.80576177     0.07300
C663        C  0.28032006  0.73923230  0.77485595     0.00500
C664        C  0.27443076  0.73479233  0.72003269    -0.07100
C665        C  0.24793302  0.74135057  0.69537608     0.06400
C666        C  0.22751563  0.75298330  0.72635528    -0.02200
Br667      Br  0.19196232  0.76392616  0.69530983    -0.01900
H668        H  0.21712274  0.76583296  0.80458643     0.10300
H669        H  0.29101104  0.72683280  0.69635184     0.08300
Br670      Br  0.31575933  0.72821779  0.80609143    -0.02300
C671        C  0.24305437  0.72621737  0.28098038    -0.08900
C672        C  0.24874817  0.75880747  0.30618761     0.07300
C673        C  0.24841329  0.78672146  0.27523843    -0.02700
C674        C  0.24354775  0.78214126  0.22015266    -0.07100
C675        C  0.23864740  0.74979344  0.19484950     0.06400
C676        C  0.23782557  0.72146992  0.22612380    -0.02200
Br677      Br  0.23100221  0.67630820  0.19557368    -0.01900
H678        H  0.24219816  0.70405517  0.30441437     0.10300
H679        H  0.24462780  0.80436796  0.19663759     0.08300
Br680      Br  0.25341527  0.83094688  0.30662399    -0.02300
C681        C  0.25446996  0.52880644  0.77515691    -0.08900
C682        C  0.24159956  0.49575784  0.80367827     0.07300
C683        C  0.23502240  0.96335907  0.77659591    -0.02700
C684        C  0.24061467  0.96428112  0.72181249    -0.07100
C685        C  0.25334177  0.49734672  0.69333634     0.06400
C686        C  0.26044805  0.52979541  0.72051048    -0.02200
Br687      Br  0.27873001  0.57610551  0.68434386    -0.01900
H688        H  0.26114525  0.55418913  0.79585049     0.10300
H689        H  0.23437583  0.93901724  0.70114306     0.08300
Br690      Br  0.21946469  0.91769530  0.81336176    -0.02300
C691        C  0.22910975  0.97197141  0.21747273    -0.08900
C692        C  0.25759011  0.50408218  0.19342609     0.07300
C693        C  0.27995745  0.53538247  0.22506066    -0.02700
C694        C  0.27379331  0.53412291  0.27979091    -0.07100
C695        C  0.24516166  0.50206652  0.30379795     0.06400
C696        C  0.22285456  0.97072335  0.27207438    -0.02200
Br697      Br  0.18441895  0.92540204  0.30196036    -0.01900
H698        H  0.21114762  0.94804235  0.19332497     0.10300
H699        H  0.29176671  0.55804319  0.30393757     0.08300
Br700      Br  0.31845797  0.58054299  0.19477897    -0.02300
C701        C  0.47212904  0.74860192  0.77945431    -0.08900
C702        C  0.50051219  0.74509569  0.80437850     0.07300
C703        C  0.03019879  0.74820566  0.77377422    -0.02700
C704        C  0.03102983  0.75459059  0.71927094    -0.07100
C705        C  0.50236016  0.75758937  0.69421396     0.06400
C706        C  0.47284426  0.75477617  0.72493690    -0.02200
Br707      Br  0.43238307  0.75804612  0.69401666    -0.01900
H708        H  0.44965665  0.74722518  0.80286734     0.10300
H709        H  0.05347269  0.75591150  0.69585418     0.08300
Br710      Br  0.07033359  0.74437749  0.80473823    -0.02300
C711        C  0.03235822  0.77357028  0.27950275    -0.08900
C712        C  0.50013778  0.74581881  0.30443442     0.07300
C713        C  0.46882399  0.72263266  0.27314655    -0.02700
C714        C  0.47009091  0.72723167  0.21809564    -0.07100
C715        C  0.50217762  0.75505309  0.19321342     0.06400
C716        C  0.03362397  0.77814803  0.22436575    -0.02200
Br717      Br  0.07900909  0.81551565  0.19291085    -0.01900
H718        H  0.05640693  0.79205451  0.30317977     0.10300
H719        H  0.44599535  0.70882338  0.19443325     0.08300
Br720      Br  0.42336109  0.68522040  0.30424467    -0.02300
N721        N  0.50114646  0.21725593  0.05879503    -0.36400
N722        N  0.00309646  0.28780637  0.05281895    -0.56900
N723        N  0.50073904  0.28198857  0.93842665    -0.36400
N724        N  0.50045764  0.21238846  0.94431625    -0.56900
C725        C  0.01067157  0.22965296  0.10906743     0.27200
C726        C  0.50859122  0.18941745  0.05216144     0.27200
C727        C  0.00848553  0.31735268  0.94472508     0.27200
C728        C  0.50961292  0.27874066  0.88813271     0.27200
C729        C  0.99723605  0.28134801  0.10541227     0.35800
C730        C  0.99533749  0.31486396  0.04078129     0.35800
C731        C  0.49329026  0.17777643  0.95619203     0.35800
C732        C  0.49487939  0.21314124  0.89162365     0.35800
C733        C  0.02438929  0.20955067  0.13461059    -0.21700
C734        C  0.52293889  0.18406602  0.09882093    -0.21700
C735        C  0.02252860  0.33688800  0.89815734    -0.21700
C736        C  0.52351517  0.31257441  0.86246970    -0.21700
C737        C  0.98617927  0.30477880  0.12717770    -0.22700
C738        C  0.98493889  0.32600785  0.08623081    -0.22700
C739        C  0.48339658  0.15643978  0.91033857    -0.22700
C740        C  0.48428495  0.17882644  0.86953823    -0.22700
C741        C  0.00373696  0.25590152  0.13406682    -0.18100
C742        C  0.49982700  0.16687446  0.00657225    -0.18100
C743        C  0.50182982  0.24527854  0.86315051    -0.18100
C744        C  0.00036283  0.33142237  0.99013302    -0.18100
H745        H  0.03362266  0.21230202  0.17530572     0.14900
H746        H  0.53082600  0.16347305  0.10699977     0.14900
H747        H  0.03066570  0.36550317  0.89043513     0.14900
H748        H  0.53249043  0.31886371  0.82174265     0.14900
H749        H  0.97994937  0.30656134  0.16826920     0.13100
H750        H  0.97766330  0.34748588  0.08963539     0.13100
H751        H  0.47715404  0.12804864  0.90624939     0.13100
H752        H  0.47867381  0.17103512  0.82823328     0.13100
H753        H  0.48584174  0.22391327  0.03303477     0.26400
H754        H  0.48551446  0.26029741  0.96445964     0.26400
N755        N  0.99612492  0.21209775  0.44546660    -0.36400
N756        N  0.99870719  0.21789849  0.56053506    -0.56900
N757        N  0.99847537  0.28738879  0.55329928    -0.36400
N758        N  0.99819460  0.28291484  0.43830420    -0.56900
C759        C  0.00361640  0.18495275  0.45850438     0.27200
C760        C  0.00310768  0.21932303  0.39309996     0.27200
C761        C  0.00669205  0.28747596  0.60527915     0.27200
C762        C  0.00669599  0.32217094  0.54005278     0.27200
C763        C  0.99239867  0.18295326  0.55562336     0.35800
C764        C  0.99243538  0.22202891  0.61175097     0.35800
C765        C  0.99153745  0.27244174  0.38698608     0.35800
C766        C  0.99193288  0.31160122  0.44366618     0.35800
C767        C  0.01476037  0.17418191  0.41334564    -0.21700
C768        C  0.01445565  0.19584393  0.37219541    -0.21700
C769        C  0.02021497  0.32282816  0.62569247    -0.21700
C770        C  0.02009790  0.34468265  0.58471085    -0.21700
C771        C  0.98214682  0.16478334  0.60377811    -0.22700
C772        C  0.98185662  0.18943727  0.63930864    -0.22700
C773        C  0.98117384  0.29468199  0.35962886    -0.22700
C774        C  0.98147958  0.31950942  0.39548605    -0.22700
C775        C  0.99874009  0.16829587  0.50929649    -0.18100
C776        C  0.99785034  0.24534624  0.36336953    -0.18100
C777        C  0.99912392  0.33297797  0.49013092    -0.18100
C778        C  0.00001951  0.25587868  0.63520052    -0.18100
H779        H  0.02212055  0.15274617  0.41024162     0.14900
H780        H  0.02153966  0.19430238  0.33144397     0.14900
H781        H  0.02860740  0.33176838  0.66613221     0.14900
H782        H  0.02835593  0.37368811  0.58797542     0.14900
H783        H  0.97600090  0.13686346  0.61254582     0.13100
H784        H  0.97547348  0.18419564  0.68098837     0.13100
H785        H  0.97472786  0.29361156  0.31791310     0.13100
H786        H  0.97558273  0.34142791  0.38657637     0.13100
H787        H  0.98332293  0.22256573  0.46992980     0.26400
H788        H  0.98368079  0.26379288  0.52974082     0.26400
O789        O  0.54711649  0.48304801  0.96159467    -0.88100
C790        C  0.97020068  0.43336623  0.07981695     0.87900
Mg791      Mg  0.58948262  0.04122503  0.96605788     1.58100
O792        O  0.93681370  0.45127618  0.96060127    -0.87800
O793        O  0.00329215  0.44209348  0.91083770    -0.75200
C794        C  0.00084080  0.13190094  0.01041064     0.93000
O795        O  0.55839166  0.50234687  0.08606648    -0.75000
O796        O  0.53168366  0.13358932  0.02001371    -0.82500
Mg797      Mg  0.54214147  0.45169178  0.03223052     1.58000
C798        C  0.86825860  0.00012880  0.98393390     0.92900
O799        O  0.52864598  0.39680236  0.99281946    -0.80700
H800        H  0.92553887  0.44346291  0.88315813    -0.06100
C801        C  0.96354546  0.03007835  0.07767246     0.87800
O802        O  0.55614126  0.05736169  0.90996250    -0.75300
O803        O  0.98410864  0.43560946  0.03597647    -0.88000
O804        O  0.86870707  0.47029532  0.99240557    -0.80800
C805        C  0.86755029  0.36760817  0.01444018     0.93000
C806        C  0.99890149  0.36604132  0.98515302     0.92900
Mg807      Mg  0.95767684  0.04613856  0.96290064     1.58000
O808        O  0.97111398  0.10125905  0.00187569    -0.80800
O809        O  0.94086935  0.99521634  0.90953422    -0.75000
O810        O  0.89795377  0.36854291  0.00446800    -0.80800
O811        O  0.60249089  0.46747552  0.02198516    -0.82500
O812        O  0.60201817  0.13028347  0.99111009    -0.80900
C813        C  0.93376978  0.46221204  0.91655436     0.87300
O814        O  0.51580697  0.06226124  0.95922469    -0.88000
O815        O  0.95296067  0.01519665  0.03403695    -0.88100
O816        O  0.49658212  0.05637737  0.08465072    -0.75200
Mg817      Mg  0.95260278  0.40899274  0.96495831     1.58000
O818        O  0.86586135  0.39661736  0.02445374    -0.82500
H819        H  0.55531346  0.47847041  0.88468751    -0.06300
O820        O  0.56221733  0.04646093  0.03554957    -0.87800
H821        H  0.57275124  0.05375671  0.11321287    -0.06100
H822        H  0.51986005  0.07240439  0.88149054    -0.06300
C823        C  0.56501647  0.03529390  0.07953737     0.87300
C824        C  0.53637948  0.46838993  0.91781611     0.87900
C825        C  0.53012290  0.06463116  0.91564056     0.87900
H826        H  0.94453390  0.02011614  0.11071758    -0.06200
O827        O  0.94463072  0.44116260  0.08622550    -0.75300
Mg828      Mg  0.54708322  0.08910485  0.03048276     1.58000
H829        H  0.98060003  0.42542915  0.11363988    -0.06300
C830        C  0.63148109  0.99858514  0.01376736     0.92900
O831        O  0.63419007  0.10173347  0.97645998    -0.82500
C832        C  0.63275912  0.13104649  0.98518746     0.93000
O833        O  0.96795435  0.36408363  0.97523191    -0.82500
Mg834      Mg  0.91062509  0.45716813  0.03162487     1.58200
O835        O  0.63024492  0.02829577  0.00877474    -0.80800
O836        O  0.89752597  0.03042102  0.97290506    -0.82500
O837        O  0.54625338  0.48502289  0.46365467    -0.88100
C838        C  0.96886186  0.43508310  0.58241019     0.87900
Mg839      Mg  0.58921008  0.04299302  0.46688722     1.58100
O840        O  0.93650496  0.45375665  0.46310189    -0.87800
O841        O  0.00232316  0.44383935  0.41336381    -0.75200
C842        C  0.00051026  0.13376850  0.51398837     0.93000
O843        O  0.55893581  0.50451962  0.58855104    -0.75000
O844        O  0.53163918  0.13584762  0.52298478    -0.82500
Mg845      Mg  0.54126298  0.45362594  0.53457934     1.58000
C846        C  0.86783918  0.00210480  0.48509353     0.92900
O847        O  0.52750193  0.39859130  0.49517188    -0.80700
H848        H  0.92526546  0.44632545  0.38561379    -0.06100
C849        C  0.96365284  0.03146450  0.58131840     0.87800
O850        O  0.55571812  0.06017087  0.41274435    -0.75300
O851        O  0.98320448  0.43795542  0.53871250    -0.88000
O852        O  0.86884526  0.47243441  0.49160638    -0.80800
C853        C  0.86610681  0.36994971  0.51435900     0.93000
C854        C  0.99782532  0.36788822  0.48691346     0.92900
Mg855      Mg  0.95727124  0.04846342  0.46691787     1.58000
O856        O  0.97070414  0.10289864  0.50754124    -0.80800
O857        O  0.94040780  0.99790083  0.41264865    -0.75000
O858        O  0.89665144  0.37047733  0.50722007    -0.80800
O859        O  0.60101383  0.46848855  0.52396555    -0.82500
O860        O  0.60202677  0.13152546  0.49306168    -0.80900
C861        C  0.93347820  0.46489954  0.41921352     0.87300
O862        O  0.51538167  0.06412869  0.46307381    -0.88000
O863        O  0.95231672  0.01704648  0.53751432    -0.88100
O864        O  0.49687969  0.05761710  0.58789000    -0.75200
Mg865      Mg  0.95168803  0.41110177  0.46763838     1.58000
O866        O  0.86475016  0.39919884  0.52357554    -0.82500
H867        H  0.55431797  0.47996631  0.38686858    -0.06300
O868        O  0.56322493  0.04874574  0.53788896    -0.87800
H869        H  0.57528756  0.05655772  0.61512252    -0.06100
H870        H  0.51951598  0.07580109  0.38584017    -0.06300
C871        C  0.56648737  0.03774933  0.58175090     0.87300
C872        C  0.53543387  0.47012464  0.42006381     0.87900
C873        C  0.52970251  0.06732221  0.41932294     0.87900
H874        H  0.94511120  0.02125074  0.61487231    -0.06200
O875        O  0.94288866  0.44235465  0.58864630    -0.75300
Mg876      Mg  0.54733994  0.09101270  0.53349377     1.58000
H877        H  0.97903139  0.42683164  0.61616071    -0.06300
C878        C  0.63055515  0.99855348  0.51318863     0.92900
O879        O  0.63446710  0.10326383  0.47679482    -0.82500
C880        C  0.63274669  0.13233418  0.48619040     0.93000
O881        O  0.96689094  0.36613251  0.47759425    -0.82500
Mg882      Mg  0.90972092  0.45917193  0.53329698     1.58200
O883        O  0.63056346  0.02867822  0.50506601    -0.80800
O884        O  0.89694481  0.03306711  0.47651482    -0.82500
N885        N  0.78984536  0.00462603  0.05214946    -0.36400
N886        N  0.71956837  0.00391928  0.05984420    -0.56900
N887        N  0.71309435  0.00079515  0.94473410    -0.36400
N888        N  0.78197520  0.99865947  0.93705769    -0.56900
C889        C  0.78416576  0.00029095  0.10518149     0.27200
C890        C  0.81698435  0.99689497  0.03963778     0.27200
C891        C  0.67867823  0.99405541  0.95819914     0.27200
C892        C  0.71257257  0.99295963  0.89251133     0.27200
C893        C  0.73058696  0.01157138  0.11081835     0.35800
C894        C  0.68973020  0.00846255  0.05485599     0.35800
C895        C  0.81687862  0.00436800  0.94148991     0.35800
C896        C  0.77713020  0.00350024  0.88545394     0.35800
C897        C  0.80865085  0.99048732  0.12697880    -0.21700
C898        C  0.82940308  0.98846874  0.08580909    -0.21700
C899        C  0.65608638  0.98230900  0.91346642    -0.21700
C900        C  0.67748117  0.98168753  0.87209762    -0.21700
C901        C  0.70763370  0.02108174  0.13821023    -0.22700
C902        C  0.68166924  0.01896480  0.10278314    -0.22700
C903        C  0.83402671  0.01228846  0.89247463    -0.22700
C904        C  0.80894750  0.01191148  0.85704965    -0.22700
C905        C  0.75842299  0.00630470  0.13449892    -0.18100
C906        C  0.83260698  0.99995371  0.98837688    -0.18100
C907        C  0.74352405  0.99754404  0.86255462    -0.18100
C908        C  0.66785854  0.00045277  0.00883613    -0.18100
H909        H  0.81157287  0.98569819  0.16834168     0.14900
H910        H  0.85144590  0.98195863  0.08972509     0.14900
H911        H  0.62729560  0.97538340  0.91068619     0.14900
H912        H  0.66833252  0.97409404  0.83154464     0.14900
H913        H  0.70888535  0.02798559  0.17975005     0.13100
H914        H  0.65907303  0.02397706  0.11156642     0.13100
H915        H  0.86157176  0.01739961  0.88288093     0.13100
H916        H  0.81352071  0.01669962  0.81495387     0.13100
H917        H  0.77856834  0.01593107  0.02675925     0.26400
H918        H  0.73666548  0.01382541  0.96838833     0.26400
N919        N  0.78165479  0.00037735  0.43807439    -0.36400
N920        N  0.71094223  0.99819692  0.44443678    -0.56900
N921        N  0.71550063  0.99712252  0.55929349    -0.36400
N922        N  0.78536120  0.99776774  0.55292201    -0.56900
C923        C  0.77009247  0.99243955  0.38727144     0.27200
C924        C  0.80965451  0.99303445  0.44417962     0.27200
C925        C  0.68007781  0.98967677  0.55316792     0.27200
C926        C  0.71905344  0.98864884  0.60978594     0.27200
C927        C  0.71702217  0.00411704  0.39172062     0.35800
C928        C  0.68253968  0.00397427  0.45686853     0.35800
C929        C  0.82020423  0.00542743  0.54080542     0.35800
C930        C  0.78476378  0.00308523  0.60570464     0.35800
C931        C  0.79088274  0.97974122  0.36098680    -0.21700
C932        C  0.81590799  0.98017759  0.39694786    -0.21700
C933        C  0.66090154  0.97624984  0.60031589    -0.21700
C934        C  0.68544123  0.97549408  0.63592799    -0.21700
C935        C  0.69184840  0.01301212  0.37011988    -0.22700
C936        C  0.66996584  0.01284965  0.41124856    -0.22700
C937        C  0.84181256  0.01528675  0.58641693    -0.22700
C938        C  0.81932153  0.01378652  0.62753291    -0.22700
C939        C  0.74370003  0.99950806  0.36276602    -0.18100
C940        C  0.83167214  0.00062523  0.48996196    -0.18100
C941        C  0.75269672  0.99621648  0.63444619    -0.18100
C942        C  0.66588677  0.99815377  0.50784442    -0.18100
H943        H  0.78879351  0.97170249  0.31982592     0.14900
H944        H  0.83679219  0.97255842  0.38893748     0.14900
H945        H  0.63251168  0.96873260  0.60907436     0.14900
H946        H  0.67941347  0.96731404  0.67696027     0.14900
H947        H  0.68919469  0.01850724  0.32896904     0.13100
H948        H  0.64699551  0.01800940  0.40761549     0.13100
H949        H  0.87059052  0.02226308  0.58984129     0.13100
H950        H  0.82732064  0.01947236  0.66877419     0.13100
H951        H  0.77450196  0.01470804  0.46477647     0.26400
H952        H  0.73713939  0.01204556  0.53307114     0.26400
N953        N  0.71222785  0.21398160  0.05334576    -0.36400
N954        N  0.72096526  0.21400823  0.93894717    -0.56900
N955        N  0.79112267  0.28318862  0.94699252    -0.36400
N956        N  0.78126734  0.28422123  0.06163775    -0.56900
C957        C  0.67780855  0.18646097  0.03888967     0.27200
C958        C  0.71062151  0.22324803  0.10448839     0.27200
C959        C  0.78536360  0.28162850  0.89393033     0.27200
C960        C  0.81743490  0.31841348  0.95936057     0.27200
C961        C  0.69053338  0.18005419  0.94380511     0.35800
C962        C  0.73203655  0.21688675  0.88815045     0.35800
C963        C  0.77595917  0.27504446  0.11333471     0.35800
C964        C  0.81680122  0.31207618  0.05736401     0.35800
C965        C  0.65412049  0.17793562  0.08191415    -0.21700
C966        C  0.67471371  0.20123070  0.12297068    -0.21700
C967        C  0.80884926  0.31612561  0.87214527    -0.21700
C968        C  0.82907620  0.33932704  0.91336012    -0.21700
C969        C  0.68211647  0.16140518  0.89574081    -0.22700
C970        C  0.70844682  0.18466593  0.86058416    -0.22700
C971        C  0.80839574  0.29709538  0.14182306    -0.22700
C972        C  0.83419751  0.32079752  0.10631814    -0.22700
C973        C  0.66808244  0.16710676  0.98937076    -0.18100
C974        C  0.74144598  0.24913904  0.13573316    -0.18100
C975        C  0.83281269  0.33152880  0.01049538    -0.18100
C976        C  0.76023350  0.24961467  0.86460291    -0.18100
H977        H  0.62508850  0.15675281  0.08411405     0.14900
H978        H  0.66459669  0.20134873  0.16235104     0.14900
H979        H  0.81125797  0.32376873  0.83082253     0.14900
H980        H  0.85013998  0.36828035  0.90977813     0.14900
H981        H  0.65872678  0.13440024  0.88621486     0.13100
H982        H  0.70929201  0.17893463  0.81898472     0.13100
H983        H  0.81294552  0.29655399  0.18391574     0.13100
H984        H  0.86243667  0.34211993  0.11547992     0.13100
H985        H  0.73639637  0.22274140  0.03172556     0.26400
H986        H  0.78051253  0.26076419  0.97260796     0.26400
N987        N  0.71514465  0.22024775  0.44037315    -0.36400
N988        N  0.78343775  0.29097051  0.44686822    -0.56900
N989        N  0.78317026  0.28248770  0.56169012    -0.36400
N990        N  0.71345443  0.21270981  0.55481928    -0.56900
C991        C  0.71666407  0.23355142  0.39119075     0.27200
C992        C  0.68004847  0.19199930  0.44747129     0.27200
C993        C  0.81120439  0.31787671  0.55676106     0.27200
C994        C  0.77381721  0.27701578  0.61340469     0.27200
C995        C  0.78176682  0.28583177  0.39369545     0.35800
C996        C  0.81817342  0.31884975  0.45849786     0.35800
C997        C  0.68549618  0.17841754  0.54179000     0.35800
C998        C  0.72071379  0.21207019  0.60697021     0.35800
C999        C  0.68199982  0.21382796  0.36709985    -0.21700
C1000       C  0.65891223  0.18743635  0.40257782    -0.21700
C1001       C  0.82014229  0.33497971  0.60597896    -0.21700
C1002       C  0.79649985  0.30927196  0.64167575    -0.21700
C1003       C  0.81553088  0.31088090  0.37122619    -0.22700
C1004       C  0.83845797  0.33202059  0.41211953    -0.22700
C1005       C  0.67460603  0.15591747  0.58624844    -0.22700
C1006       C  0.69683988  0.17728855  0.62754278    -0.22700
C1007       C  0.74935933  0.26008598  0.36539085    -0.18100
C1008       C  0.66761014  0.16832493  0.49157607    -0.18100
C1009       C  0.74729942  0.24309277  0.63657544    -0.18100
C1010       C  0.83089295  0.33417135  0.50984693    -0.18100
H1011       H  0.67440278  0.21740384  0.32744818     0.14900
H1012       H  0.63006656  0.16677577  0.39564761     0.14900
H1013       H  0.84190395  0.36286267  0.61554672     0.14900
H1014       H  0.79661552  0.31373304  0.68388896     0.14900
H1015       H  0.82268833  0.31400714  0.32967439     0.13100
H1016       H  0.86676637  0.35463457  0.40802169     0.13100
H1017       H  0.65247712  0.12732297  0.58890412     0.13100
H1018       H  0.69541781  0.16836808  0.66809940     0.13100
H1019       H  0.73787108  0.22633268  0.46449752     0.26400
H1020       H  0.77412412  0.26216097  0.53259514     0.26400
C1021       C  0.73352458  0.25758023  0.78096824    -0.08900
C1022       C  0.75984193  0.25085583  0.80573833     0.07300
C1023       C  0.78030271  0.23919899  0.77484510     0.00500
C1024       C  0.77443143  0.23476643  0.72001995    -0.07100
C1025       C  0.74793400  0.24131880  0.69534888     0.06400
C1026       C  0.72749936  0.25293853  0.72631323    -0.02200
Br1027     Br  0.69199021  0.26393084  0.69523317    -0.01900
H1028       H  0.71705783  0.26574464  0.80454327     0.10300
H1029       H  0.79103300  0.22682919  0.69634771     0.08300
Br1030     Br  0.81579137  0.22826185  0.80610109    -0.02300
C1031       C  0.74307418  0.22624185  0.28094049    -0.08900
C1032       C  0.74872814  0.25881556  0.30615285     0.07300
C1033       C  0.74839152  0.28672918  0.27520183    -0.02700
C1034       C  0.74354502  0.28215559  0.22011346    -0.07100
C1035       C  0.73867169  0.24981879  0.19481047     0.06400
C1036       C  0.73787275  0.22150515  0.22608064    -0.02200
Br1037     Br  0.73113332  0.17637904  0.19551616    -0.01900
H1038       H  0.74223441  0.20408620  0.30437160     0.10300
H1039       H  0.74461650  0.30437804  0.19659758     0.08300
Br1040     Br  0.75337577  0.33095010  0.30657781    -0.02300
C1041       C  0.75451657  0.02878492  0.77520341    -0.08900
C1042       C  0.74163374  0.99572085  0.80369110     0.07300
C1043       C  0.73499005  0.46338597  0.77661131    -0.02700
C1044       C  0.74058424  0.46428674  0.72182682    -0.07100
C1045       C  0.75337793  0.99735345  0.69335499     0.06400
C1046       C  0.76049615  0.02979569  0.72055684    -0.02200
Br1047     Br  0.77879461  0.07612223  0.68442777    -0.01900
H1048       H  0.76119882  0.05416071  0.79592271     0.10300
H1049       H  0.73434950  0.43901549  0.70118268     0.08300
Br1050     Br  0.71941671  0.41773306  0.81341740    -0.02300
C1051       C  0.72917475  0.47198879  0.21750036    -0.08900
C1052       C  0.75758515  0.00404775  0.19344181     0.07300
C1053       C  0.78000690  0.03530129  0.22512478    -0.02700
C1054       C  0.77383112  0.03401555  0.27985469    -0.07100
C1055       C  0.74513718  0.00197925  0.30381839     0.06400
C1056       C  0.72292949  0.47076736  0.27210105    -0.02200
Br1057     Br  0.68457982  0.42542466  0.30205716    -0.01900
H1058       H  0.71124925  0.44802495  0.19338750     0.10300
H1059       H  0.79184355  0.05789972  0.30403629     0.08300
Br1060     Br  0.81860325  0.08043425  0.19491461    -0.02300
C1061       C  0.97209804  0.24856003  0.77934089    -0.08900
C1062       C  0.00048758  0.24506004  0.80425676     0.07300
C1063       C  0.53018361  0.24819648  0.77364690    -0.02700
C1064       C  0.53100912  0.25458530  0.71914417    -0.07100
C1065       C  0.00233164  0.25757595  0.69409638     0.06400
C1066       C  0.97281449  0.25475082  0.72482760    -0.02200
Br1067     Br  0.93235943  0.25803886  0.69392304    -0.01900
H1068       H  0.94962302  0.24717272  0.80275930     0.10300
H1069       H  0.55345636  0.25592056  0.69572203     0.08300
Br1070     Br  0.57034396  0.24441168  0.80460782    -0.02300
C1071       C  0.53236630  0.27359533  0.27939024    -0.08900
C1072       C  0.00015631  0.24582138  0.30431603     0.07300
C1073       C  0.96886052  0.22260722  0.27301447    -0.02700
C1074       C  0.97013124  0.22720877  0.21796261    -0.07100
C1075       C  0.00220516  0.25505565  0.19308693     0.06400
C1076       C  0.53363849  0.27817010  0.22425027    -0.02200
Br1077     Br  0.57901920  0.31555484  0.19280777    -0.01900
H1078       H  0.55640327  0.29209719  0.30307385     0.10300
H1079       H  0.94604829  0.20878077  0.19429326     0.08300
Br1080     Br  0.92341590  0.18514520  0.30408983    -0.02300
N1081       N  0.50113349  0.71726231  0.05891902    -0.36400
N1082       N  0.00308697  0.78781009  0.05295543    -0.56900
N1083       N  0.50073972  0.78200481  0.93855343    -0.36400
N1084       N  0.50047956  0.71242138  0.94443333    -0.56900
C1085       C  0.01064065  0.72964405  0.10920038     0.27200
C1086       C  0.50857021  0.68941906  0.05228415     0.27200
C1087       C  0.00848335  0.81736604  0.94486247     0.27200
C1088       C  0.50961802  0.77876710  0.88825827     0.27200
C1089       C  0.99721346  0.78134400  0.10554449     0.35800
C1090       C  0.99532562  0.81486504  0.04091793     0.35800
C1091       C  0.49330564  0.67780660  0.95630130     0.35800
C1092       C  0.49490757  0.71317809  0.89173958     0.35800
C1093       C  0.02433861  0.70952612  0.13474933    -0.21700
C1094       C  0.52289477  0.68404800  0.09895192    -0.21700
C1095       C  0.02252564  0.83690913  0.89829948    -0.21700
C1096       C  0.52351617  0.81260288  0.86260362    -0.21700
C1097       C  0.98614816  0.80476853  0.12730832    -0.22700
C1098       C  0.98491484  0.82600160  0.08636328    -0.22700
C1099       C  0.48342240  0.65647662  0.91044225    -0.22700
C1100       C  0.48431775  0.67886721  0.86964658    -0.22700
C1101       C  0.00370708  0.75589372  0.13419725    -0.18100
C1102       C  0.49981588  0.66688857  0.00668369    -0.18100
C1103       C  0.50184913  0.74531248  0.86327124    -0.18100
C1104       C  0.00035625  0.83142596  0.99027354    -0.18100
H1105       H  0.03355337  0.71226198  0.17545209     0.14900
H1106       H  0.53076967  0.66344568  0.10712911     0.14900
H1107       H  0.03066043  0.86552476  0.89058597     0.14900
H1108       H  0.53249399  0.81889882  0.82187838     0.14900
H1109       H  0.97990465  0.80654172  0.16839644     0.13100
H1110       H  0.97763261  0.84747502  0.08976537     0.13100
H1111       H  0.47717630  0.62808477  0.90634710     0.13100
H1112       H  0.47870894  0.67107935  0.82834026     0.13100
H1113       H  0.48584376  0.72393153  0.03314918     0.26400
H1114       H  0.48551554  0.76031045  0.96458104     0.26400
N1115       N  0.99611542  0.71209471  0.44557449    -0.36400
N1116       N  0.99873655  0.71791019  0.56064597    -0.56900
N1117       N  0.99853698  0.78741369  0.55341482    -0.36400
N1118       N  0.99823746  0.78293680  0.43841962    -0.56900
C1119       C  0.00358468  0.68493181  0.45859773     0.27200
C1120       C  0.00308040  0.71930668  0.39320070     0.27200
C1121       C  0.00673248  0.78749544  0.60540404     0.27200
C1122       C  0.00674258  0.82219385  0.54017873     0.27200
C1123       C  0.99241959  0.68296189  0.55573218     0.35800
C1124       C  0.99247943  0.72204629  0.61186681     0.35800
C1125       C  0.99155668  0.77245517  0.38710717     0.35800
C1126       C  0.99197748  0.81162329  0.44378967     0.35800
C1127       C  0.01468581  0.67413271  0.41342483    -0.21700
C1128       C  0.01438441  0.69579830  0.37227900    -0.21700
C1129       C  0.02022607  0.82283960  0.62582987    -0.21700
C1130       C  0.02011294  0.84469618  0.58484859    -0.21700
C1131       C  0.98218040  0.66479694  0.60389068    -0.22700
C1132       C  0.98190394  0.68945564  0.63942514    -0.22700
C1133       C  0.98118499  0.79469234  0.35976011    -0.22700
C1134       C  0.98150638  0.81952529  0.39561900    -0.22700
C1135       C  0.99873262  0.66829123  0.50939567    -0.18100
C1136       C  0.99784416  0.74534643  0.36348436    -0.18100
C1137       C  0.99916952  0.83299750  0.49025631    -0.18100
C1138       C  0.00005843  0.75589511  0.63531806    -0.18100
H1139       H  0.02201775  0.65267750  0.41030860     0.14900
H1140       H  0.02144257  0.69424035  0.33151993     0.14900
H1141       H  0.02859038  0.83177180  0.66627888     0.14900
H1142       H  0.02834520  0.87369436  0.58812389     0.14900
H1143       H  0.97602825  0.63687479  0.61265620     0.13100
H1144       H  0.97552667  0.68421534  0.68110648     0.13100
H1145       H  0.97471660  0.79361165  0.31805135     0.13100
H1146       H  0.97560126  0.84143918  0.38671705     0.13100
H1147       H  0.98334855  0.72258280  0.47004436     0.26400
H1148       H  0.98376504  0.76383059  0.52985399     0.26400
O1149       O  0.54713453  0.98301996  0.96165941    -0.88100
C1150       C  0.97025619  0.93340857  0.07993846     0.87900
Mg1151     Mg  0.58946347  0.54126113  0.96602291     1.58100
O1152       O  0.93683096  0.95126986  0.96071520    -0.87800
O1153       O  0.00328906  0.94206119  0.91093608    -0.75200
C1154       C  0.00082091  0.63191195  0.01050273     0.93000
O1155       O  0.55847087  0.00237228  0.08613387    -0.75000
O1156       O  0.53166303  0.63359806  0.02009284    -0.82500
Mg1157     Mg  0.54217787  0.95169488  0.03231903     1.58000
C1158       C  0.86822034  0.50013264  0.98388499     0.92900
O1159       O  0.52864969  0.89679899  0.99294268    -0.80700
H1160       H  0.92550591  0.94339263  0.88328977    -0.06100
C1161       C  0.96349960  0.53005157  0.07762434     0.87800
O1162       O  0.55612370  0.55740671  0.90993340    -0.75300
O1163       O  0.98414972  0.93563589  0.03609158    -0.88000
O1164       O  0.86874815  0.97030306  0.99253828    -0.80800
C1165       C  0.86756883  0.86762454  0.01457533     0.93000
C1166       C  0.99889927  0.86604213  0.98529797     0.92900
Mg1167     Mg  0.95765534  0.54616700  0.96289070     1.58000
O1168       O  0.97109382  0.60127385  0.00193801    -0.80800
O1169       O  0.94087077  0.49526225  0.90948262    -0.75000
O1170       O  0.89797154  0.86855387  0.00462076    -0.80800
O1171       O  0.60251673  0.96744314  0.02202305    -0.82500
O1172       O  0.60200301  0.63031966  0.99114499    -0.80900
C1173       C  0.93376100  0.96216956  0.91665527     0.87300
O1174       O  0.51579178  0.56230636  0.95920565    -0.88000
O1175       O  0.95292698  0.51518543  0.03397736    -0.88100
O1176       O  0.49653274  0.55635402  0.08462401    -0.75200
Mg1177     Mg  0.95261535  0.90899198  0.96509446     1.58000
O1178       O  0.86588761  0.89663607  0.02460129    -0.82500
H1179       H  0.55530931  0.97841102  0.88475366    -0.06300
O1180       O  0.56218271  0.54647108  0.03551285    -0.87800
H1181       H  0.57265649  0.55371582  0.11319302    -0.06100
H1182       H  0.51985257  0.57246751  0.88147600    -0.06300
C1183       C  0.56494723  0.53527419  0.07949588     0.87300
C1184       C  0.53638304  0.96834868  0.91789193     0.87900
C1185       C  0.53011056  0.56468368  0.91562056     0.87900
H1186       H  0.94447979  0.52007534  0.11065945    -0.06200
O1187       O  0.94468368  0.94120066  0.08634963    -0.75300
Mg1188     Mg  0.54705453  0.58911373  0.03049063     1.58000
H1189       H  0.98066931  0.92548796  0.11376306    -0.06300
C1190       C  0.63145490  0.49862646  0.01377556     0.92900
O1191       O  0.63417569  0.60178172  0.97640567    -0.82500
C1192       C  0.63274457  0.63109298  0.98515464     0.93000
O1193       O  0.96795323  0.86408662  0.97538806    -0.82500
Mg1194     Mg  0.91066306  0.95718434  0.03174353     1.58200
O1195       O  0.63021332  0.52833474  0.00878938    -0.80800
O1196       O  0.89749443  0.53043533  0.97291512    -0.82500
O1197       O  0.54625987  0.98500899  0.46372814    -0.88100
C1198       C  0.96888734  0.93512677  0.58250713     0.87900
Mg1199     Mg  0.58921088  0.54301052  0.46685013     1.58100
O1200       O  0.93652909  0.95374425  0.46316401    -0.87800
O1201       O  0.00233706  0.94381035  0.41344902    -0.75200
C1202       C  0.00050773  0.63376746  0.51407839     0.93000
O1203       O  0.55895692  0.00454737  0.58861888    -0.75000
O1204       O  0.53164106  0.63585137  0.52305294    -0.82500
Mg1205     Mg  0.54128099  0.95363975  0.53467732     1.58000
C1206       C  0.86785092  0.50215277  0.48509719     0.92900
O1207       O  0.52752749  0.89860386  0.49530817    -0.80700
H1208       H  0.92525817  0.94626829  0.38568680    -0.06100
C1209       C  0.96365785  0.53145190  0.58131499     0.87800
O1210       O  0.55572455  0.56020901  0.41273060    -0.75300
O1211       O  0.98322415  0.93796719  0.53881213    -0.88000
O1212       O  0.86885036  0.97239098  0.49154742    -0.80800
C1213       C  0.86613335  0.86994102  0.51440766     0.93000
C1214       C  0.99785755  0.86789827  0.48704342     0.92900
Mg1215     Mg  0.95728612  0.54849049  0.46693024     1.58000
O1216       O  0.97070458  0.60289691  0.50762429    -0.80800
O1217       O  0.94043091  0.49795096  0.41262150    -0.75000
O1218       O  0.89668286  0.87046815  0.50733302    -0.80800
O1219       O  0.60102237  0.96849529  0.52404307    -0.82500
O1220       O  0.60203528  0.63154440  0.49309022    -0.80900
C1221       C  0.93347783  0.96485913  0.41926754     0.87300
O1222       O  0.51539351  0.56415658  0.46308579    -0.88000
O1223       O  0.95232355  0.51704513  0.53750407    -0.88100
O1224       O  0.49688378  0.55760428  0.58789642    -0.75200
Mg1225     Mg  0.95171106  0.91109116  0.46773890     1.58000
O1226       O  0.86477303  0.89919115  0.52359431    -0.82500
H1227       H  0.55433249  0.97993202  0.38695189    -0.06300
O1228       O  0.56322857  0.54874833  0.53786381    -0.87800
H1229       H  0.57527341  0.55652054  0.61510431    -0.06100
H1230       H  0.51952736  0.57585584  0.38586141    -0.06300
C1231       C  0.56647698  0.53772788  0.58171445     0.87300
C1232       C  0.53544591  0.97009814  0.42014457     0.87900
C1233       C  0.52971310  0.56736376  0.41933052     0.87900
H1234       H  0.94511498  0.52122851  0.61486679    -0.06200
O1235       O  0.94290890  0.94239462  0.58871476    -0.75300
Mg1236     Mg  0.54734688  0.59101817  0.53351360     1.58000
H1237       H  0.97906691  0.92690696  0.61628025    -0.06300
C1238       C  0.63054935  0.49855449  0.51314488     0.92900
O1239       O  0.63447342  0.60328542  0.47678269    -0.82500
C1240       C  0.63275466  0.63235499  0.48620018     0.93000
O1241       O  0.96691960  0.86613234  0.47771953    -0.82500
Mg1242     Mg  0.90972780  0.95916819  0.53332010     1.58200
O1243       O  0.63055414  0.52867846  0.50502777    -0.80800
O1244       O  0.89696377  0.53310305  0.47649236    -0.82500
N1245       N  0.78980648  0.50462151  0.05212801    -0.36400
N1246       N  0.71953008  0.50392503  0.05984593    -0.56900
N1247       N  0.71307094  0.50085568  0.94473224    -0.36400
N1248       N  0.78194177  0.49869705  0.93704251    -0.56900
C1249       C  0.78411551  0.50026173  0.10515515     0.27200
C1250       C  0.81692709  0.49686601  0.03960009     0.27200
C1251       C  0.67865951  0.49412891  0.95819744     0.27200
C1252       C  0.71254991  0.49303530  0.89250275     0.27200
C1253       C  0.73055311  0.51156837  0.11081964     0.35800
C1254       C  0.68969565  0.50847675  0.05487172     0.35800
C1255       C  0.81685244  0.50442290  0.94147455     0.35800
C1256       C  0.77710699  0.50357634  0.88544887     0.35800
C1257       C  0.80857055  0.49041116  0.12693408    -0.21700
C1258       C  0.82931657  0.48838966  0.08575574    -0.21700
C1259       C  0.65607433  0.48241481  0.91345722    -0.21700
C1260       C  0.67746597  0.48179286  0.87208520    -0.21700
C1261       C  0.70760238  0.52107560  0.13822683    -0.22700
C1262       C  0.68163683  0.51896810  0.10280911    -0.22700
C1263       C  0.83401819  0.51240214  0.89247128    -0.22700
C1264       C  0.80893967  0.51203526  0.85705275    -0.22700
C1265       C  0.75839498  0.50630253  0.13448375    -0.18100
C1266       C  0.83256599  0.49995893  0.98834247    -0.18100
C1267       C  0.74349680  0.49760702  0.86254510    -0.18100
C1268       C  0.66783457  0.50050016  0.00884577    -0.18100
H1269       H  0.81147577  0.48559143  0.16829008     0.14900
H1270       H  0.85133832  0.48184797  0.08965533     0.14900
H1271       H  0.62728894  0.47550711  0.91067521     0.14900
H1272       H  0.66832020  0.47421906  0.83152732     0.14900
H1273       H  0.70885780  0.52797455  0.17976912     0.13100
H1274       H  0.65904647  0.52398753  0.11160144     0.13100
H1275       H  0.86157338  0.51754169  0.88287970     0.13100
H1276       H  0.81352392  0.51686240  0.81496505     0.13100
H1277       H  0.77855706  0.51596682  0.02676096     0.26400
H1278       H  0.73663755  0.51385890  0.96839774     0.26400
N1279       N  0.78169827  0.50047650  0.43804982    -0.36400
N1280       N  0.71098601  0.49828772  0.44441398    -0.56900
N1281       N  0.71549254  0.49711883  0.55926235    -0.36400
N1282       N  0.78536105  0.49779255  0.55290232    -0.56900
C1283       C  0.77014536  0.49255534  0.38724179     0.27200
C1284       C  0.80969047  0.49312338  0.44415498     0.27200
C1285       C  0.68006123  0.48964281  0.55311194     0.27200
C1286       C  0.71902526  0.48859463  0.60973595     0.27200
C1287       C  0.71708081  0.50423854  0.39170575     0.35800
C1288       C  0.68257474  0.50404942  0.45685063     0.35800
C1289       C  0.82021758  0.50549490  0.54078577     0.35800
C1290       C  0.78475616  0.50311081  0.60568469     0.35800
C1291       C  0.79093770  0.47986146  0.36095113    -0.21700
C1292       C  0.81595204  0.48028009  0.39691642    -0.21700
C1293       C  0.66085713  0.47613827  0.60022251    -0.21700
C1294       C  0.68539036  0.47537070  0.63583871    -0.21700
C1295       C  0.69191282  0.51314455  0.37011432    -0.22700
C1296       C  0.67001642  0.51295499  0.41124173    -0.22700
C1297       C  0.84182948  0.51538707  0.58639546    -0.22700
C1298       C  0.81932546  0.51386127  0.62751132    -0.22700
C1299       C  0.74375293  0.49962668  0.36274473    -0.18100
C1300       C  0.83169392  0.50069470  0.48994717    -0.18100
C1301       C  0.75267086  0.49619424  0.63442192    -0.18100
C1302       C  0.66588893  0.49816685  0.50780968    -0.18100
H1303       H  0.78885646  0.47183516  0.31978576     0.14900
H1304       H  0.83683414  0.47265812  0.38890535     0.14900
H1305       H  0.63245262  0.46857841  0.60895706     0.14900
H1306       H  0.67934300  0.46713927  0.67685050     0.14900
H1307       H  0.68926784  0.51865807  0.32896872     0.13100
H1308       H  0.64704062  0.51810637  0.40761028     0.13100
H1309       H  0.87061923  0.52240311  0.58981804     0.13100
H1310       H  0.82732360  0.51956119  0.66875130     0.13100
H1311       H  0.77454039  0.51479703  0.46476444     0.26400
H1312       H  0.73714620  0.51209881  0.53308336     0.26400
N1313       N  0.71221467  0.71400341  0.05334979    -0.36400
N1314       N  0.72096483  0.71407899  0.93894442    -0.56900
N1315       N  0.79114759  0.78323577  0.94704685    -0.36400
N1316       N  0.78126974  0.78422029  0.06169889    -0.56900
C1317       C  0.67779145  0.68650104  0.03887103     0.27200
C1318       C  0.71060652  0.72324797  0.10450467     0.27200
C1319       C  0.78540737  0.78169097  0.89397958     0.27200
C1320       C  0.81746095  0.81845510  0.95944508     0.27200
C1321       C  0.69053862  0.68011700  0.94378890     0.35800
C1322       C  0.73207667  0.71695234  0.88816770     0.35800
C1323       C  0.77595228  0.77502054  0.11338790     0.35800
C1324       C  0.81680510  0.81207583  0.05744684     0.35800
C1325       C  0.65409956  0.67796644  0.08189324    -0.21700
C1326       C  0.67469393  0.70123588  0.12297057    -0.21700
C1327       C  0.80890636  0.81619408  0.87222049    -0.21700
C1328       C  0.82912138  0.83938223  0.91345727    -0.21700
C1329       C  0.68216302  0.66146102  0.89573349    -0.22700
C1330       C  0.70851580  0.68472227  0.86059955    -0.22700
C1331       C  0.80838577  0.79705520  0.14189171    -0.22700
C1332       C  0.83419353  0.82077318  0.10640680    -0.22700
C1333       C  0.66806900  0.66715979  0.98934064    -0.18100
C1334       C  0.74143126  0.74911762  0.13577023    -0.18100
C1335       C  0.83282592  0.83155019  0.01059534    -0.18100
C1336       C  0.76028449  0.74968149  0.86463146    -0.18100
H1337       H  0.62506458  0.65679148  0.08408248     0.14900
H1338       H  0.66457402  0.70133900  0.16235414     0.14900
H1339       H  0.81133320  0.82384904  0.83090125     0.14900
H1340       H  0.85019214  0.86833474  0.90989748     0.14900
H1341       H  0.65879311  0.63444537  0.88620057     0.13100
H1342       H  0.70939910  0.67898161  0.81901343     0.13100
H1343       H  0.81292871  0.79649538  0.18398308     0.13100
H1344       H  0.86243135  0.84209069  0.11558618     0.13100
H1345       H  0.73638400  0.72276192  0.03173329     0.26400
H1346       H  0.78052329  0.76080297  0.97264636     0.26400
N1347       N  0.71515652  0.72027149  0.44040893    -0.36400
N1348       N  0.78346990  0.79097047  0.44689809    -0.56900
N1349       N  0.78317325  0.78249710  0.56171596    -0.36400
N1350       N  0.71345208  0.71273277  0.55484326    -0.56900
C1351       C  0.71668070  0.73358394  0.39123157     0.27200
C1352       C  0.68005344  0.69203537  0.44750578     0.27200
C1353       C  0.81119942  0.81789009  0.55678124     0.27200
C1354       C  0.77378948  0.77704494  0.61342182     0.27200
C1355       C  0.78180612  0.78581340  0.39372985     0.35800
C1356       C  0.81821605  0.81882544  0.45853617     0.35800
C1357       C  0.68551149  0.67843351  0.54180338     0.35800
C1358       C  0.72071855  0.71208938  0.60699064     0.35800
C1359       C  0.68201134  0.71388569  0.36714826    -0.21700
C1360       C  0.65891600  0.68749473  0.40262259    -0.21700
C1361       C  0.82009681  0.83501565  0.60598345    -0.21700
C1362       C  0.79643967  0.80931728  0.64167826    -0.21700
C1363       C  0.81558817  0.81082612  0.37126932    -0.22700
C1364       C  0.83851920  0.83196157  0.41216636    -0.22700
C1365       C  0.67464115  0.65592389  0.58625076    -0.22700
C1366       C  0.69686797  0.67729750  0.62755058    -0.22700
C1367       C  0.74938748  0.76008774  0.36542508    -0.18100
C1368       C  0.66761852  0.66834658  0.49159395    -0.18100
C1369       C  0.74728600  0.74312000  0.63660073    -0.18100
C1370       C  0.83091991  0.83416332  0.50988185    -0.18100
H1371       H  0.67441791  0.71747128  0.32749939     0.14900
H1372       H  0.63006661  0.66684516  0.39569318     0.14900
H1373       H  0.84184316  0.86290648  0.61554510     0.14900
H1374       H  0.79652754  0.81379421  0.68388277     0.14900
H1375       H  0.82275444  0.81393156  0.32972130     0.13100
H1376       H  0.86684046  0.85455165  0.40807700     0.13100
H1377       H  0.65252826  0.62732179  0.58889629     0.13100
H1378       H  0.69545581  0.66837230  0.66810255     0.13100
H1379       H  0.73787939  0.72633397  0.46451971     0.26400
H1380       H  0.77416275  0.76215874  0.53264840     0.26400
C1381       C  0.73357584  0.75765592  0.78100326    -0.08900
C1382       C  0.75989478  0.75092767  0.80576192     0.07300
C1383       C  0.78032016  0.73923246  0.77485605     0.00500
C1384       C  0.77443086  0.73479251  0.72003278    -0.07100
C1385       C  0.74793296  0.74135054  0.69537623     0.06400
C1386       C  0.72751540  0.75298303  0.72635549    -0.02200
Br1387     Br  0.69196185  0.76392560  0.69531014    -0.01900
H1388       H  0.71712238  0.76583249  0.80458669     0.10300
H1389       H  0.79101127  0.72683316  0.69635188     0.08300
Br1390     Br  0.81575969  0.72821828  0.80609143    -0.02300
C1391       C  0.74305447  0.72621738  0.28098056    -0.08900
C1392       C  0.74874825  0.75880748  0.30618777     0.07300
C1393       C  0.74841338  0.78672147  0.27523857    -0.02700
C1394       C  0.74354782  0.78214124  0.22015281    -0.07100
C1395       C  0.73864749  0.74979343  0.19484967     0.06400
C1396       C  0.73782571  0.72146993  0.22612397    -0.02200
Br1397     Br  0.73100247  0.67630826  0.19557384    -0.01900
H1398       H  0.74219827  0.70405520  0.30441456     0.10300
H1399       H  0.74462785  0.80436793  0.19663773     0.08300
Br1400     Br  0.75341545  0.83094694  0.30662408    -0.02300
C1401       C  0.75447017  0.52880639  0.77515697    -0.08900
C1402       C  0.74159948  0.49575772  0.80367828     0.07300
C1403       C  0.73502257  0.96335915  0.77659563    -0.02700
C1404       C  0.74061479  0.96428120  0.72181220    -0.07100
C1405       C  0.75334176  0.49734660  0.69333635     0.06400
C1406       C  0.76044831  0.52979536  0.72051055    -0.02200
Br1407     Br  0.77873073  0.57610556  0.68434406    -0.01900
H1408       H  0.76114568  0.55418912  0.79585060     0.10300
H1409       H  0.73437598  0.93901734  0.70114277     0.08300
Br1410     Br  0.71946498  0.91769540  0.81336145    -0.02300
C1411       C  0.72910980  0.97197125  0.21747254    -0.08900
C1412       C  0.75759024  0.50408237  0.19342607     0.07300
C1413       C  0.77995772  0.53538262  0.22506066    -0.02700
C1414       C  0.77379362  0.53412306  0.27979092    -0.07100
C1415       C  0.74516186  0.50206674  0.30379796     0.06400
C1416       C  0.72285458  0.97072317  0.27207418    -0.02200
Br1417     Br  0.68441907  0.92540180  0.30196016    -0.01900
H1418       H  0.71114775  0.94804217  0.19332477     0.10300
H1419       H  0.79176712  0.55804329  0.30393760     0.08300
Br1420     Br  0.81845841  0.58054305  0.19477898    -0.02300
C1421       C  0.97212877  0.74860160  0.77945418    -0.08900
C1422       C  0.00051202  0.74509560  0.80437848     0.07300
C1423       C  0.53019885  0.74820559  0.77377412    -0.02700
C1424       C  0.53102984  0.75459053  0.71927085    -0.07100
C1425       C  0.00236007  0.75758923  0.69421393     0.06400
C1426       C  0.97284400  0.75477577  0.72493673    -0.02200
Br1427     Br  0.93238257  0.75804515  0.69401624    -0.01900
H1428       H  0.94965627  0.74722469  0.80286711     0.10300
H1429       H  0.55347259  0.75591128  0.69585399     0.08300
Br1430     Br  0.57033358  0.74437720  0.80473794    -0.02300
C1431       C  0.53235814  0.77357017  0.27950271    -0.08900
C1432       C  0.00013787  0.74581886  0.30443438     0.07300
C1433       C  0.96882412  0.72263266  0.27314649    -0.02700
C1434       C  0.97009106  0.72723172  0.21809558    -0.07100
C1435       C  0.00217776  0.75505321  0.19321342     0.06400
C1436       C  0.53362387  0.77814789  0.22436570    -0.02200
Br1437     Br  0.57900899  0.81551541  0.19291066    -0.01900
H1438       H  0.55640689  0.79205439  0.30317969     0.10300
H1439       H  0.94599554  0.70882339  0.19443316     0.08300
Br1440     Br  0.92336127  0.68522024  0.30424452    -0.02300
loop_ 
_geom_bond_atom_site_label_1 
_geom_bond_atom_site_label_2 
_geom_bond_distance 
_geom_bond_site_symmetry_2 
_ccdc_geom_bond_type 
N1            C6   1.353       .  A
N1          C725   1.352       .  A
N1           H33   1.039   1_455  S
N2            C9   1.355       .  A
N2           C10   1.354       .  A
N3            C8   1.350       .  A
N3          C727   1.351       .  A
N3           H34   1.039   1_455  S
N4           C11   1.353   1_455  A
N4           C12   1.354   1_455  A
C5          N721   1.352       .  A
C5           C13   1.386       .  A
C5           C21   1.412       .  A
C6           C22   1.413   1_455  A
C6           C14   1.388       .  A
C7          N723   1.351       .  A
C7           C15   1.385       .  A
C7           C24   1.405       .  A
C8           C23   1.412       .  A
C8           C16   1.389       .  A
C9           C21   1.418       .  A
C9           C17   1.385       .  A
C10          C24   1.420   1_554  A
C10          C18   1.387       .  A
C11          C19   1.390       .  A
C11          C22   1.423   1_556  A
C12          C20   1.384       .  A
C12          C23   1.418   1_655  A
C13         C734   1.372       .  A
C13          H25   1.082       .  S
C14         C733   1.372       .  A
C14          H26   1.081       .  S
C15         C736   1.372       .  A
C15          H27   1.082       .  S
C16         C735   1.372       .  A
C16          H28   1.083       .  S
C17          C18   1.380       .  A
C17          H29   1.082       .  S
C18          H30   1.082       .  S
C19          C20   1.380       .  A
C19          H31   1.082       .  S
C20          H32   1.082       .  S
C21         C355   1.493       .  S
C22         C794   1.483   1_655  S
C23        C1062   1.489       .  S
C24          C86   1.480       .  S
N35          C40   1.357       .  A
N35          C39   1.356       .  A
N35          H67   1.044       .  S
N36          C43   1.350       .  A
N36          C44   1.349       .  A
N37          C42   1.355       .  A
N37          C41   1.356       .  A
N37          H68   1.044       .  S
N38          C45   1.351       .  A
N38          C46   1.352       .  A
C39          C47   1.389       .  A
C39          C55   1.426       .  A
C40          C56   1.424       .  A
C40          C48   1.386       .  A
C41          C49   1.386       .  A
C41          C58   1.422       .  A
C42          C57   1.427       .  A
C42          C50   1.391       .  A
C43          C55   1.405       .  A
C43          C51   1.385       .  A
C44          C58   1.412       .  A
C44          C52   1.389       .  A
C45          C53   1.387       .  A
C45          C56   1.413       .  A
C46          C54   1.386       .  A
C46          C57   1.411       .  A
C47          C48   1.382       .  A
C47          H59   1.083       .  S
C48          H60   1.083       .  S
C49          C50   1.382       .  A
C49          H61   1.083       .  S
C50          H62   1.082       .  S
C51          C52   1.369       .  A
C51          H63   1.082       .  S
C52          H64   1.082       .  S
C53          C54   1.370       .  A
C53          H65   1.082       .  S
C54          H66   1.082       .  S
C55         C122   1.482       .  S
C56         C352   1.495       .  S
C57         C134   1.485       .  S
C58         C345   1.491       .  S
O69         C104   1.232       .  S
O69         Mg77   2.162   1_556  S
O69        Mg431   2.171       .  S
C70         H109   1.081       .  S
C70          O83   1.233       .  S
C70         O107   1.268       .  A
Mg71        O100   2.162   1_556  S
Mg71        O429   2.170   1_545  S
Mg71        O115   2.287   1_556  S
Mg71        O111   2.275       .  S
Mg71         O82   2.304       .  S
O72          C93   1.233       .  S
O72        Mg114   2.178   1_556  S
O72         Mg97   2.170       .  S
O73         C824   1.268       .  A
O73         Mg97   2.305       .  S
C74         C742   1.483       .  S
C74          O88   1.272       .  A
C74         O796   1.270       .  A
O75         C463   1.270       .  A
O75         Mg77   2.307       .  S
O76         C794   1.270       .  A
O76        Mg108   2.260       .  S
Mg77        O803   2.156   1_455  S
Mg77         O91   2.266       .  S
Mg77         O79   2.291   1_554  S
C78         C186   1.482   1_545  S
C78         O116   1.270       .  A
C78         O444   1.273   1_545  A
O79         C806   1.272   1_455  A
H80          C93   1.081       .  S
C81         H106   1.081       .  S
C81          O95   1.232       .  S
C81         O816   1.267       .  A
O82         C105   1.269       .  A
O83         Mg97   2.166   1_554  S
O83        Mg797   2.156       .  S
O84         C438   1.273       .  A
O84        Mg114   2.294   1_556  S
C85         C255   1.475       .  S
C85          O98   1.271       .  A
C85          O90   1.270       .  A
C86         O113   1.271       .  A
C86         O799   1.272       .  A
Mg87         O95   2.165   1_556  S
Mg87        O814   2.160       .  S
Mg87         O88   2.295   1_556  S
Mg87         O89   2.305   1_545  S
Mg87        O116   2.258       .  S
O89         C453   1.269       .  A
O90         Mg97   2.274   1_554  S
O91         C470   1.270       .  A
O92         C112   1.271       .  A
O92        Mg108   2.287   1_556  S
C93         O449   1.269       .  A
O94         C105   1.233       .  S
O94        Mg108   2.170   1_556  S
O94        Mg807   2.160   1_455  S
O95        Mg474   2.162   1_545  S
O96         C801   1.267       .  A
O96        Mg108   2.299   1_655  S
Mg97        O113   2.275       .  S
O98        Mg114   2.270       .  S
H99         C104   1.081       .  S
O100        C103   1.233       .  S
O100       Mg108   2.166       .  S
H101        C103   1.081       .  S
H102        C105   1.081       .  S
C103        O435   1.270       .  A
C104        O793   1.268       .  A
O107       Mg114   2.298       .  S
C110        C188   1.479   1_565  S
C110        O115   1.271   1_565  A
C110        O451   1.270       .  A
O111        C112   1.272       .  A
C112        C253   1.487       .  S
Mg114       O455   2.163       .  S
O117        C152   1.232       .  S
O117       Mg125   2.169       .  S
O117       Mg479   2.169       .  S
C118        H157   1.081       .  S
C118        O131   1.233       .  S
C118        O155   1.269       .  A
Mg119       O148   2.171       .  S
Mg119       O477   2.169   1_545  S
Mg119       O163   2.293       .  S
Mg119       O159   2.273       .  S
Mg119       O130   2.305       .  S
O120        C141   1.233       .  S
O120       Mg162   2.167       .  S
O120       Mg145   2.167       .  S
O121        C872   1.268       .  A
O121       Mg145   2.304       .  S
C122        O136   1.271       .  A
C122        O844   1.272       .  A
O123        C511   1.269       .  A
O123       Mg125   2.308       .  S
O124        C842   1.272       .  A
O124       Mg156   2.283       .  S
Mg125       O851   2.162   1_455  S
Mg125       O139   2.253       .  S
Mg125       O127   2.293       .  S
C126        C220   1.478       .  S
C126        O164   1.269       .  A
C126        O492   1.271   1_545  A
O127        C854   1.272   1_455  A
H128        C141   1.081       .  S
C129        H154   1.081       .  S
C129        O143   1.233       .  S
C129        O864   1.269       .  A
O130        C153   1.268       .  A
O131       Mg145   2.169       .  S
O131       Mg845   2.162       .  S
O132        C486   1.271       .  A
O132       Mg162   2.288       .  S
C133        C290   1.479       .  S
C133        O146   1.270       .  A
C133        O138   1.271       .  A
C134        O161   1.271       .  A
C134        O847   1.272       .  A
Mg135       O143   2.163       .  S
Mg135       O862   2.164       .  S
Mg135       O136   2.288       .  S
Mg135       O137   2.307   1_545  S
Mg135       O164   2.267       .  S
O137        C501   1.269       .  A
O138       Mg145   2.286       .  S
O139        C518   1.269       .  A
O140        C160   1.272       .  A
O140       Mg156   2.286       .  S
C141        O497   1.269       .  A
O142        C153   1.232       .  S
O142       Mg156   2.163       .  S
O142       Mg855   2.164   1_455  S
O143       Mg522   2.163   1_545  S
O144        C849   1.269       .  A
O144       Mg156   2.305   1_655  S
Mg145       O161   2.273       .  S
O146       Mg162   2.261       .  S
H147        C152   1.081       .  S
O148        C151   1.233       .  S
O148       Mg156   2.172       .  S
H149        C151   1.081       .  S
H150        C153   1.081       .  S
C151        O483   1.269       .  A
C152        O841   1.268       .  A
O155       Mg162   2.304       .  S
C158        C222   1.483       .  S
C158        O163   1.273   1_565  A
C158        O499   1.269       .  A
O159        C160   1.271       .  A
C160        C288   1.478       .  S
Mg162       O503   2.163       .  S
N165        C170   1.357   1_545  A
N165        C169   1.358       .  A
N165        H197   1.036       .  S
N166        C173   1.349       .  A
N166        C174   1.350       .  A
N167        C172   1.357   1_545  A
N167        C171   1.356   1_545  A
N167        H198   1.036       .  S
N168        C175   1.351   1_565  A
N168        C176   1.350   1_565  A
C169        C177   1.386   1_545  A
C169        C185   1.424       .  A
C170        C186   1.427   1_554  A
C170        C178   1.390       .  A
C171        C179   1.390       .  A
C171        C188   1.426   1_566  A
C172        C187   1.422       .  A
C172        C180   1.386       .  A
C173        C185   1.412       .  A
C173        C181   1.388       .  A
C174        C188   1.407       .  A
C174        C182   1.385       .  A
C175        C183   1.386       .  A
C175        C186   1.408   1_545  A
C176        C184   1.388       .  A
C176        C187   1.412   1_545  A
C177        C178   1.382       .  A
C177        H189   1.082       .  S
C178        H190   1.082       .  S
C179        C180   1.383       .  A
C179        H191   1.083       .  S
C180        H192   1.082       .  S
C181        C182   1.368       .  A
C181        H193   1.082       .  S
C182        H194   1.082       .  S
C183        C184   1.366       .  A
C183        H195   1.082       .  S
C184        H196   1.082       .  S
C185        C332   1.492       .  S
C187        C322   1.489       .  S
N199        C204   1.352   1_545  A
N199        C203   1.351   1_545  A
N199        H231   1.039       .  S
N200        C207   1.356   1_565  A
N200        C208   1.355   1_565  A
N201        C206   1.352       .  A
N201        C205   1.351       .  A
N201        H232   1.038   1_565  S
N202        C209   1.353   1_565  A
N202        C210   1.354   1_565  A
C203        C211   1.389       .  A
C203        C219   1.412       .  A
C204        C220   1.407   1_565  A
C204        C212   1.385       .  A
C205        C213   1.388       .  A
C205        C222   1.411       .  A
C206        C221   1.412       .  A
C206        C214   1.387       .  A
C207        C219   1.421   1_545  A
C207        C215   1.384       .  A
C208        C222   1.426   1_545  A
C208        C216   1.390       .  A
C209        C217   1.388       .  A
C209        C220   1.420       .  A
C210        C218   1.385       .  A
C210        C221   1.417   1_545  A
C211        C212   1.372       .  A
C211        H223   1.082       .  S
C212        H224   1.082       .  S
C213        C214   1.370       .  A
C213        H225   1.081       .  S
C214        H226   1.082       .  S
C215        C216   1.380       .  A
C215        H227   1.082       .  S
C216        H228   1.082       .  S
C217        C218   1.380       .  A
C217        H229   1.083       .  S
C218        H230   1.082       .  S
C219        C335   1.493   1_565  S
C221        C325   1.489       .  S
N233        C238   1.360       .  A
N233        C237   1.358       .  A
N233        H265   1.037       .  S
N234        C241   1.350       .  A
N234        C242   1.350       .  A
N235        C240   1.355       .  A
N235        C239   1.357       .  A
N235        H266   1.038       .  S
N236        C243   1.349       .  A
N236        C244   1.349       .  A
C237        C245   1.390       .  A
C237        C253   1.431   1_554  A
C238        C254   1.426       .  A
C238        C246   1.385       .  A
C239        C247   1.386       .  A
C239        C256   1.420       .  A
C240        C255   1.422   1_556  A
C240        C248   1.389       .  A
C241        C253   1.410       .  A
C241        C249   1.387       .  A
C242        C256   1.411       .  A
C242        C250   1.387       .  A
C243        C251   1.389       .  A
C243        C254   1.412       .  A
C244        C252   1.384       .  A
C244        C255   1.403       .  A
C245        C246   1.382       .  A
C245        H257   1.081       .  S
C246        H258   1.082       .  S
C247        C248   1.380       .  A
C247        H259   1.082       .  S
C248        H260   1.083       .  S
C249        C250   1.367       .  A
C249        H261   1.082       .  S
C250        H262   1.082       .  S
C251        C252   1.369       .  A
C251        H263   1.082       .  S
C252        H264   1.083       .  S
C254        C315   1.499       .  S
C256        C302   1.489       .  S
N267        C272   1.351       .  A
N267        C271   1.350       .  A
N267        H299   1.041       .  S
N268        C275   1.357       .  A
N268        C276   1.354       .  A
N269        C274   1.351       .  A
N269        C273   1.351       .  A
N269        H300   1.038       .  S
N270        C277   1.354       .  A
N270        C278   1.355       .  A
C271        C279   1.388       .  A
C271        C287   1.412       .  A
C272        C288   1.406       .  A
C272        C280   1.386       .  A
C273        C281   1.387       .  A
C273        C290   1.409       .  A
C274        C289   1.414       .  A
C274        C282   1.389       .  A
C275        C287   1.421       .  A
C275        C283   1.384       .  A
C276        C290   1.424       .  A
C276        C284   1.389       .  A
C277        C285   1.388       .  A
C277        C288   1.421       .  A
C278        C286   1.385       .  A
C278        C289   1.419       .  A
C279        C280   1.372       .  A
C279        H291   1.083       .  S
C280        H292   1.082       .  S
C281        C282   1.370       .  A
C281        H293   1.082       .  S
C282        H294   1.082       .  S
C283        C284   1.379       .  A
C283        H295   1.082       .  S
C284        H296   1.082       .  S
C285        C286   1.380       .  A
C285        H297   1.082       .  S
C286        H298   1.082       .  S
C287        C312   1.498       .  S
C289        C305   1.488       .  S
C301        C302   1.404       .  A
C301        C306   1.399       .  A
C301        H308   1.083       .  S
C302        C303   1.409       .  A
C303        C304   1.402       .  A
C303       Br310   1.917       .  S
C304        C305   1.405       .  A
C304        H309   1.083       .  S
C305        C306   1.408       .  A
C306       Br307   1.917       .  S
C311        C312   1.408       .  A
C311        C316   1.401       .  A
C311        H318   1.084       .  S
C312        C313   1.409       .  A
C313        C314   1.405       .  A
C313       Br320   1.919       .  S
C314        C315   1.411       .  A
C314        H319   1.083       .  S
C315        C316   1.408       .  A
C316       Br317   1.919       .  S
C321        C322   1.403   1_545  A
C321        C326   1.401       .  A
C321        H328   1.083       .  S
C322        C683   1.410       .  A
C323        C324   1.402       .  A
C323        C682   1.411       .  A
C323       Br330   1.918       .  S
C324        C685   1.404       .  A
C324        H329   1.083       .  S
C325        C326   1.409   1_565  A
C325        C684   1.404       .  A
C326       Br327   1.917       .  S
C331        C336   1.401       .  A
C331        C692   1.405       .  A
C331        H338   1.083       .  S
C332        C333   1.408       .  A
C332        C691   1.405   1_545  A
C333        C334   1.404       .  A
C333       Br340   1.918       .  S
C334        C335   1.407       .  A
C334        H339   1.083       .  S
C335        C696   1.408   1_545  A
C336        C695   1.408       .  A
C336       Br337   1.917       .  S
C341        C342   1.406       .  A
C341        C346   1.400       .  A
C341        H348   1.084       .  S
C342       C1063   1.407       .  A
C342        C743   1.489       .  S
C343        C344   1.401       .  A
C343       C1062   1.407       .  A
C343       Br350   1.918       .  S
C344       C1065   1.407       .  A
C344        H349   1.083       .  S
C345        C346   1.407       .  A
C345       C1064   1.407       .  A
C346       Br347   1.918       .  S
C351        C356   1.404       .  A
C351       C1072   1.407       .  A
C351        H358   1.083       .  S
C352        C353   1.408       .  A
C352       C1071   1.407       .  A
C353        C354   1.402       .  A
C353       Br360   1.916       .  S
C354        C355   1.405       .  A
C354        H359   1.083       .  S
C355       C1076   1.409       .  A
C356       C1075   1.409       .  A
C356       Br357   1.918       .  S
N361        C366   1.353       .  A
N361       C1085   1.352       .  A
N361        H393   1.039   1_455  S
N362        C369   1.355       .  A
N362        C370   1.354       .  A
N363        C368   1.350       .  A
N363       C1087   1.351       .  A
N363        H394   1.039   1_455  S
N364        C371   1.353   1_455  A
N364        C372   1.354   1_455  A
C365       N1081   1.352       .  A
C365        C373   1.386       .  A
C365        C381   1.412       .  A
C366        C382   1.413   1_455  A
C366        C374   1.388       .  A
C367       N1083   1.351       .  A
C367        C375   1.385       .  A
C367        C384   1.405       .  A
C368        C383   1.412       .  A
C368        C376   1.389       .  A
C369        C381   1.418       .  A
C369        C377   1.385       .  A
C370        C384   1.420   1_554  A
C370        C378   1.387       .  A
C371        C379   1.390       .  A
C371        C382   1.423   1_556  A
C372        C380   1.384       .  A
C372        C383   1.418   1_655  A
C373       C1094   1.372       .  A
C373        H385   1.082       .  S
C374       C1093   1.372       .  A
C374        H386   1.081       .  S
C375       C1096   1.372       .  A
C375        H387   1.082       .  S
C376       C1095   1.372       .  A
C376        H388   1.083       .  S
C377        C378   1.380       .  A
C377        H389   1.082       .  S
C378        H390   1.082       .  S
C379        C380   1.380       .  A
C379        H391   1.082       .  S
C380        H392   1.082       .  S
C381        C715   1.493       .  S
C382       C1154   1.483   1_655  S
C383       C1422   1.489       .  S
C384        C446   1.480       .  S
N395        C400   1.357       .  A
N395        C399   1.356       .  A
N395        H427   1.043       .  S
N396        C403   1.350       .  A
N396        C404   1.349       .  A
N397        C402   1.355       .  A
N397        C401   1.356       .  A
N397        H428   1.044       .  S
N398        C405   1.351       .  A
N398        C406   1.352       .  A
C399        C407   1.389       .  A
C399        C415   1.426       .  A
C400        C416   1.424       .  A
C400        C408   1.386       .  A
C401        C409   1.386       .  A
C401        C418   1.422       .  A
C402        C417   1.427       .  A
C402        C410   1.391       .  A
C403        C415   1.405       .  A
C403        C411   1.385       .  A
C404        C418   1.412       .  A
C404        C412   1.389       .  A
C405        C413   1.387       .  A
C405        C416   1.413       .  A
C406        C414   1.386       .  A
C406        C417   1.411       .  A
C407        C408   1.382       .  A
C407        H419   1.083       .  S
C408        H420   1.083       .  S
C409        C410   1.382       .  A
C409        H421   1.083       .  S
C410        H422   1.082       .  S
C411        C412   1.369       .  A
C411        H423   1.082       .  S
C412        H424   1.082       .  S
C413        C414   1.370       .  A
C413        H425   1.082       .  S
C414        H426   1.082       .  S
C415        C482   1.482       .  S
C416        C712   1.495       .  S
C417        C494   1.485       .  S
C418        C705   1.491       .  S
O429        C464   1.232       .  S
O429       Mg437   2.162   1_556  S
C430        H469   1.081       .  S
C430        O443   1.233       .  S
C430        O467   1.268       .  A
Mg431       O460   2.162   1_556  S
Mg431       O475   2.287   1_556  S
Mg431       O471   2.276       .  S
Mg431       O442   2.304       .  S
O432        C453   1.233       .  S
O432       Mg474   2.178   1_556  S
O432       Mg457   2.170       .  S
O433       C1184   1.268       .  A
O433       Mg457   2.305       .  S
C434       C1102   1.483       .  S
C434       O1156   1.270       .  A
C434        O448   1.272       .  A
O435       Mg437   2.308   1_545  S
O436       C1154   1.270       .  A
O436       Mg468   2.260       .  S
Mg437      O1163   2.157   1_455  S
Mg437       O451   2.266       .  S
Mg437       O439   2.290   1_554  S
C438        C546   1.482       .  S
C438        O476   1.270       .  A
O439       C1166   1.272   1_455  A
H440        C453   1.081       .  S
C441        H466   1.081       .  S
C441        O455   1.232       .  S
C441       O1176   1.267       .  A
O442        C465   1.269       .  A
O443      Mg1157   2.157       .  S
O443       Mg457   2.166   1_554  S
O444       Mg474   2.293   1_556  S
C445        C615   1.475       .  S
C445        O458   1.271       .  A
C445        O450   1.270       .  A
C446       O1159   1.272       .  A
C446        O473   1.271       .  A
Mg447      O1174   2.160       .  S
Mg447       O455   2.165   1_556  S
Mg447       O448   2.295   1_556  S
Mg447       O449   2.306       .  S
Mg447       O476   2.258       .  S
O450       Mg457   2.274   1_554  S
O452        C472   1.271       .  A
O452       Mg468   2.287   1_556  S
O454        C465   1.234       .  S
O454      Mg1167   2.160   1_455  S
O454       Mg468   2.170   1_556  S
O456       C1161   1.267       .  A
O456       Mg468   2.299   1_655  S
Mg457       O473   2.275       .  S
O458       Mg474   2.270       .  S
H459        C464   1.081       .  S
O460        C463   1.233       .  S
O460       Mg468   2.166       .  S
H461        C463   1.081       .  S
H462        C465   1.081       .  S
C464       O1153   1.268       .  A
O467       Mg474   2.298       .  S
C470        C548   1.479       .  S
C470        O475   1.271       .  A
O471        C472   1.272       .  A
C472        C613   1.487       .  S
O477        C512   1.232       .  S
O477       Mg485   2.169       .  S
C478        H517   1.081       .  S
C478        O491   1.233       .  S
C478        O515   1.269       .  A
Mg479       O508   2.171       .  S
Mg479       O523   2.293       .  S
Mg479       O519   2.273       .  S
Mg479       O490   2.305       .  S
O480        C501   1.233       .  S
O480       Mg522   2.167       .  S
O480       Mg505   2.167       .  S
O481       C1232   1.268       .  A
O481       Mg505   2.304       .  S
C482       O1204   1.272       .  A
C482        O496   1.271       .  A
O483       Mg485   2.308   1_545  S
O484       C1202   1.272       .  A
O484       Mg516   2.283       .  S
Mg485      O1211   2.162   1_455  S
Mg485       O499   2.253       .  S
Mg485       O487   2.293       .  S
C486        C580   1.478       .  S
C486        O524   1.269       .  A
O487       C1214   1.271   1_455  A
H488        C501   1.081       .  S
C489        H514   1.081       .  S
C489        O503   1.233       .  S
C489       O1224   1.269       .  A
O490        C513   1.268       .  A
O491      Mg1205   2.162       .  S
O491       Mg505   2.170       .  S
O492       Mg522   2.288       .  S
C493        C650   1.479       .  S
C493        O506   1.270       .  A
C493        O498   1.271       .  A
C494       O1207   1.271       .  A
C494        O521   1.271       .  A
Mg495      O1222   2.164       .  S
Mg495       O503   2.163       .  S
Mg495       O496   2.288       .  S
Mg495       O497   2.307       .  S
Mg495       O524   2.267       .  S
O498       Mg505   2.286       .  S
O500        C520   1.272       .  A
O500       Mg516   2.286       .  S
O502        C513   1.232       .  S
O502      Mg1215   2.164   1_455  S
O502       Mg516   2.162       .  S
O504       C1209   1.269       .  A
O504       Mg516   2.305   1_655  S
Mg505       O521   2.272       .  S
O506       Mg522   2.261       .  S
H507        C512   1.081       .  S
O508        C511   1.233       .  S
O508       Mg516   2.172       .  S
H509        C511   1.081       .  S
H510        C513   1.081       .  S
C512       O1201   1.268       .  A
O515       Mg522   2.304       .  S
C518        C582   1.483       .  S
C518        O523   1.273       .  A
O519        C520   1.271       .  A
C520        C648   1.479       .  S
N525        C530   1.357       .  A
N525        C529   1.358       .  A
N525        H557   1.036       .  S
N526        C533   1.349       .  A
N526        C534   1.350       .  A
N527        C532   1.357       .  A
N527        C531   1.356       .  A
N527        H558   1.036       .  S
N528        C535   1.351       .  A
N528        C536   1.350       .  A
C529        C537   1.386       .  A
C529        C545   1.424       .  A
C530        C546   1.427   1_554  A
C530        C538   1.390       .  A
C531        C539   1.390       .  A
C531        C548   1.426   1_556  A
C532        C547   1.422       .  A
C532        C540   1.386       .  A
C533        C545   1.412       .  A
C533        C541   1.388       .  A
C534        C548   1.407       .  A
C534        C542   1.385       .  A
C535        C543   1.386       .  A
C535        C546   1.408       .  A
C536        C544   1.388       .  A
C536        C547   1.412       .  A
C537        C538   1.382       .  A
C537        H549   1.082       .  S
C538        H550   1.082       .  S
C539        C540   1.383       .  A
C539        H551   1.083       .  S
C540        H552   1.082       .  S
C541        C542   1.368       .  A
C541        H553   1.082       .  S
C542        H554   1.082       .  S
C543        C544   1.366       .  A
C543        H555   1.082       .  S
C544        H556   1.082       .  S
C545        C692   1.492       .  S
C547        C682   1.490       .  S
N559        C564   1.352       .  A
N559        C563   1.351       .  A
N559        H591   1.039       .  S
N560        C567   1.356       .  A
N560        C568   1.355       .  A
N561        C566   1.352       .  A
N561        C565   1.351       .  A
N561        H592   1.038       .  S
N562        C569   1.353       .  A
N562        C570   1.354       .  A
C563        C571   1.389       .  A
C563        C579   1.412       .  A
C564        C580   1.407       .  A
C564        C572   1.385       .  A
C565        C573   1.388       .  A
C565        C582   1.411       .  A
C566        C581   1.412       .  A
C566        C574   1.387       .  A
C567        C579   1.421       .  A
C567        C575   1.384       .  A
C568        C582   1.426       .  A
C568        C576   1.390       .  A
C569        C577   1.388       .  A
C569        C580   1.420       .  A
C570        C578   1.385       .  A
C570        C581   1.417       .  A
C571        C572   1.372       .  A
C571        H583   1.082       .  S
C572        H584   1.082       .  S
C573        C574   1.370       .  A
C573        H585   1.081       .  S
C574        H586   1.082       .  S
C575        C576   1.380       .  A
C575        H587   1.082       .  S
C576        H588   1.082       .  S
C577        C578   1.380       .  A
C577        H589   1.083       .  S
C578        H590   1.082       .  S
C579        C695   1.493       .  S
C581        C685   1.489       .  S
N593        C598   1.360       .  A
N593        C597   1.358       .  A
N593        H625   1.037       .  S
N594        C601   1.350       .  A
N594        C602   1.350       .  A
N595        C600   1.355       .  A
N595        C599   1.357       .  A
N595        H626   1.038       .  S
N596        C603   1.349       .  A
N596        C604   1.349       .  A
C597        C605   1.390       .  A
C597        C613   1.431   1_554  A
C598        C614   1.426       .  A
C598        C606   1.385       .  A
C599        C607   1.386       .  A
C599        C616   1.420       .  A
C600        C615   1.422   1_556  A
C600        C608   1.389       .  A
C601        C613   1.411       .  A
C601        C609   1.387       .  A
C602        C616   1.411       .  A
C602        C610   1.387       .  A
C603        C611   1.389       .  A
C603        C614   1.412       .  A
C604        C612   1.384       .  A
C604        C615   1.403       .  A
C605        C606   1.382       .  A
C605        H617   1.081       .  S
C606        H618   1.082       .  S
C607        C608   1.380       .  A
C607        H619   1.082       .  S
C608        H620   1.083       .  S
C609        C610   1.367       .  A
C609        H621   1.082       .  S
C610        H622   1.082       .  S
C611        C612   1.369       .  A
C611        H623   1.082       .  S
C612        H624   1.083       .  S
C614        C675   1.499       .  S
C616        C662   1.489       .  S
N627        C632   1.351       .  A
N627        C631   1.350       .  A
N627        H659   1.041       .  S
N628        C635   1.357       .  A
N628        C636   1.354       .  A
N629        C634   1.351       .  A
N629        C633   1.351       .  A
N629        H660   1.038       .  S
N630        C637   1.354       .  A
N630        C638   1.355       .  A
C631        C639   1.388       .  A
C631        C647   1.412       .  A
C632        C648   1.406       .  A
C632        C640   1.386       .  A
C633        C641   1.387       .  A
C633        C650   1.409       .  A
C634        C649   1.414       .  A
C634        C642   1.389       .  A
C635        C647   1.421       .  A
C635        C643   1.384       .  A
C636        C650   1.424       .  A
C636        C644   1.389       .  A
C637        C645   1.388       .  A
C637        C648   1.421       .  A
C638        C646   1.385       .  A
C638        C649   1.419       .  A
C639        C640   1.372       .  A
C639        H651   1.083       .  S
C640        H652   1.082       .  S
C641        C642   1.370       .  A
C641        H653   1.082       .  S
C642        H654   1.082       .  S
C643        C644   1.379       .  A
C643        H655   1.082       .  S
C644        H656   1.082       .  S
C645        C646   1.380       .  A
C645        H657   1.082       .  S
C646        H658   1.082       .  S
C647        C672   1.498       .  S
C649        C665   1.488       .  S
C661        C662   1.404       .  A
C661        C666   1.399       .  A
C661        H668   1.083       .  S
C662        C663   1.409       .  A
C663        C664   1.402       .  A
C663       Br670   1.917       .  S
C664        C665   1.405       .  A
C664        H669   1.083       .  S
C665        C666   1.408       .  A
C666       Br667   1.917       .  S
C671        C672   1.408       .  A
C671        C676   1.401       .  A
C671        H678   1.084       .  S
C672        C673   1.409       .  A
C673        C674   1.405       .  A
C673       Br680   1.919       .  S
C674        C675   1.411       .  A
C674        H679   1.083       .  S
C675        C676   1.408       .  A
C676       Br677   1.919       .  S
C681        C682   1.403       .  A
C681        C686   1.401       .  A
C681        H688   1.083       .  S
C683        C684   1.402       .  A
C683       Br690   1.918       .  S
C684        H689   1.083       .  S
C685        C686   1.409       .  A
C686       Br687   1.917       .  S
C691        C696   1.401       .  A
C691        H698   1.083       .  S
C692        C693   1.408       .  A
C693        C694   1.404       .  A
C693       Br700   1.918       .  S
C694        C695   1.407       .  A
C694        H699   1.083       .  S
C696       Br697   1.917       .  S
C701        C702   1.406       .  A
C701        C706   1.400       .  A
C701        H708   1.084       .  S
C702       C1423   1.407       .  A
C702       C1103   1.489       .  S
C703       C1422   1.407       .  A
C703        C704   1.401       .  A
C703       Br710   1.918       .  S
C704       C1425   1.407       .  A
C704        H709   1.083       .  S
C705       C1424   1.407       .  A
C705        C706   1.407       .  A
C706       Br707   1.918       .  S
C711       C1432   1.407       .  A
C711        C716   1.404       .  A
C711        H718   1.083       .  S
C712       C1431   1.407       .  A
C712        C713   1.408       .  A
C713        C714   1.402       .  A
C713       Br720   1.916       .  S
C714        C715   1.405       .  A
C714        H719   1.083       .  S
C715       C1436   1.409       .  A
C716       C1435   1.409       .  A
C716       Br717   1.918       .  S
N721        C726   1.353       .  A
N721        H753   1.039       .  S
N722        C729   1.355   1_455  A
N722        C730   1.354   1_455  A
N723        C728   1.350       .  A
N723        H754   1.039       .  S
N724        C731   1.353       .  A
N724        C732   1.354       .  A
C725        C733   1.386       .  A
C725        C741   1.412       .  A
C726        C742   1.413       .  A
C726        C734   1.388       .  A
C727        C735   1.385       .  A
C727        C744   1.405       .  A
C728        C743   1.412       .  A
C728        C736   1.389       .  A
C729        C741   1.418   1_655  A
C729        C737   1.385       .  A
C730        C744   1.420   1_654  A
C730        C738   1.387       .  A
C731        C739   1.390       .  A
C731        C742   1.423   1_556  A
C732        C740   1.384       .  A
C732        C743   1.418       .  A
C733        H745   1.082       .  S
C734        H746   1.081       .  S
C735        H747   1.082       .  S
C736        H748   1.083       .  S
C737        C738   1.380       .  A
C737        H749   1.082       .  S
C738        H750   1.082       .  S
C739        C740   1.380       .  A
C739        H751   1.082       .  S
C740        H752   1.082       .  S
C741       C1075   1.493       .  S
C744        C806   1.480   1_455  S
N755        C760   1.357   1_655  A
N755        C759   1.356   1_655  A
N755        H787   1.044       .  S
N756        C763   1.350       .  A
N756        C764   1.349       .  A
N757        C762   1.355   1_655  A
N757        C761   1.356   1_655  A
N757        H788   1.044       .  S
N758        C765   1.351       .  A
N758        C766   1.352       .  A
C759        C767   1.389       .  A
C759        C775   1.426   1_455  A
C760        C776   1.424   1_455  A
C760        C768   1.386       .  A
C761        C769   1.386       .  A
C761        C778   1.422       .  A
C762        C777   1.427   1_455  A
C762        C770   1.391       .  A
C763        C775   1.405       .  A
C763        C771   1.385       .  A
C764        C778   1.412   1_655  A
C764        C772   1.389       .  A
C765        C773   1.387       .  A
C765        C776   1.413       .  A
C766        C774   1.386       .  A
C766        C777   1.411       .  A
C767        C768   1.382       .  A
C767        H779   1.083       .  S
C768        H780   1.083       .  S
C769        C770   1.382       .  A
C769        H781   1.083       .  S
C770        H782   1.082       .  S
C771        C772   1.369       .  A
C771        H783   1.082       .  S
C772        H784   1.082       .  S
C773        C774   1.370       .  A
C773        H785   1.082       .  S
C774        H786   1.082       .  S
C775        C842   1.482   1_655  S
C776       C1072   1.495   1_655  S
C777        C854   1.485       .  S
C778       C1065   1.491       .  S
O789        C824   1.232       .  S
O789      Mg1151   2.171       .  S
O789       Mg797   2.162   1_556  S
C790        H829   1.081       .  S
C790        O803   1.233       .  S
C790        O827   1.268       .  A
Mg791      O1149   2.170   1_545  S
Mg791       O820   2.162   1_556  S
Mg791       O835   2.287   1_556  S
Mg791       O831   2.275       .  S
Mg791       O802   2.304       .  S
O792        C813   1.233       .  S
O792       Mg834   2.178   1_556  S
O792       Mg817   2.170       .  S
O793       Mg817   2.305   1_455  S
C794        O808   1.272   1_455  A
O795       C1183   1.270       .  A
O795       Mg797   2.307       .  S
O796       Mg828   2.260       .  S
Mg797       O811   2.266       .  S
Mg797       O799   2.291   1_554  S
C798        C906   1.482   1_545  S
C798        O836   1.270       .  A
C798       O1164   1.273   1_545  A
H800        C813   1.081       .  S
C801        H826   1.081       .  S
C801        O815   1.232       .  S
O802        C825   1.269       .  A
O803       Mg817   2.166   1_554  S
O804       C1158   1.273       .  A
O804       Mg834   2.294   1_556  S
C805        C975   1.475       .  S
C805        O818   1.271       .  A
C805        O810   1.270       .  A
C806        O833   1.271       .  A
Mg807       O815   2.165   1_556  S
Mg807       O808   2.295   1_556  S
Mg807       O809   2.305   1_545  S
Mg807       O836   2.258       .  S
O809       C1173   1.269       .  A
O810       Mg817   2.274   1_554  S
O811       C1190   1.270       .  A
O812        C832   1.271       .  A
O812       Mg828   2.287   1_556  S
C813       O1169   1.269       .  A
O814        C825   1.233       .  S
O814       Mg828   2.170   1_556  S
O815      Mg1194   2.162   1_545  S
O816       Mg828   2.299       .  S
Mg817       O833   2.275       .  S
O818       Mg834   2.270       .  S
H819        C824   1.081       .  S
O820        C823   1.233       .  S
O820       Mg828   2.166       .  S
H821        C823   1.081       .  S
H822        C825   1.081       .  S
C823       O1155   1.270       .  A
O827       Mg834   2.298       .  S
C830        C908   1.479   1_565  S
C830       O1171   1.270       .  A
C830        O835   1.271   1_565  A
O831        C832   1.272       .  A
C832        C973   1.487       .  S
Mg834      O1175   2.163       .  S
O837        C872   1.232       .  S
O837      Mg1199   2.169       .  S
O837       Mg845   2.169       .  S
C838        H877   1.081       .  S
C838        O851   1.233       .  S
C838        O875   1.269       .  A
Mg839      O1197   2.169   1_545  S
Mg839       O868   2.171       .  S
Mg839       O883   2.293       .  S
Mg839       O879   2.273       .  S
Mg839       O850   2.305       .  S
O840        C861   1.233       .  S
O840       Mg882   2.167       .  S
O840       Mg865   2.167       .  S
O841       Mg865   2.304   1_455  S
C842        O856   1.271   1_455  A
O843       C1231   1.269       .  A
O843       Mg845   2.308       .  S
O844       Mg876   2.283       .  S
Mg845       O859   2.253       .  S
Mg845       O847   2.293       .  S
C846        C940   1.478       .  S
C846        O884   1.269       .  A
C846       O1212   1.271   1_545  A
H848        C861   1.081       .  S
C849        H874   1.081       .  S
C849        O863   1.233       .  S
O850        C873   1.268       .  A
O851       Mg865   2.169       .  S
O852       C1206   1.271       .  A
O852       Mg882   2.288       .  S
C853       C1010   1.479       .  S
C853        O866   1.270       .  A
C853        O858   1.271       .  A
C854        O881   1.271       .  A
Mg855       O863   2.163       .  S
Mg855       O856   2.288       .  S
Mg855       O857   2.307   1_545  S
Mg855       O884   2.267       .  S
O857       C1221   1.269       .  A
O858       Mg865   2.286       .  S
O859       C1238   1.269       .  A
O860        C880   1.272       .  A
O860       Mg876   2.286       .  S
C861       O1217   1.269       .  A
O862        C873   1.232       .  S
O862       Mg876   2.163       .  S
O863      Mg1242   2.163   1_545  S
O864       Mg876   2.305       .  S
Mg865       O881   2.273       .  S
O866       Mg882   2.261       .  S
H867        C872   1.081       .  S
O868        C871   1.233       .  S
O868       Mg876   2.172       .  S
H869        C871   1.081       .  S
H870        C873   1.081       .  S
C871       O1203   1.269       .  A
O875       Mg882   2.304       .  S
C878        C942   1.483       .  S
C878       O1219   1.269       .  A
C878        O883   1.273   1_565  A
O879        C880   1.271       .  A
C880       C1008   1.478       .  S
Mg882      O1223   2.163       .  S
N885        C890   1.357   1_545  A
N885        C889   1.358       .  A
N885        H917   1.036       .  S
N886        C893   1.349       .  A
N886        C894   1.350       .  A
N887        C892   1.357   1_545  A
N887        C891   1.356   1_545  A
N887        H918   1.036       .  S
N888        C895   1.351   1_565  A
N888        C896   1.350   1_565  A
C889        C897   1.386   1_545  A
C889        C905   1.424       .  A
C890        C906   1.427   1_554  A
C890        C898   1.390       .  A
C891        C899   1.390       .  A
C891        C908   1.426   1_566  A
C892        C907   1.422       .  A
C892        C900   1.386       .  A
C893        C905   1.412       .  A
C893        C901   1.388       .  A
C894        C908   1.407       .  A
C894        C902   1.385       .  A
C895        C903   1.386       .  A
C895        C906   1.408   1_545  A
C896        C904   1.388       .  A
C896        C907   1.412   1_545  A
C897        C898   1.382       .  A
C897        H909   1.082       .  S
C898        H910   1.082       .  S
C899        C900   1.383       .  A
C899        H911   1.083       .  S
C900        H912   1.082       .  S
C901        C902   1.368       .  A
C901        H913   1.082       .  S
C902        H914   1.082       .  S
C903        C904   1.366       .  A
C903        H915   1.082       .  S
C904        H916   1.082       .  S
C905       C1052   1.492       .  S
C907       C1042   1.489       .  S
N919        C924   1.352   1_545  A
N919        C923   1.351   1_545  A
N919        H951   1.039       .  S
N920        C927   1.356   1_565  A
N920        C928   1.355   1_565  A
N921        C926   1.352       .  A
N921        C925   1.351       .  A
N921        H952   1.038   1_565  S
N922        C929   1.353   1_565  A
N922        C930   1.354   1_565  A
C923        C931   1.389       .  A
C923        C939   1.412       .  A
C924        C940   1.407   1_565  A
C924        C932   1.385       .  A
C925        C933   1.388       .  A
C925        C942   1.411       .  A
C926        C941   1.412       .  A
C926        C934   1.387       .  A
C927        C939   1.421   1_545  A
C927        C935   1.384       .  A
C928        C942   1.426   1_545  A
C928        C936   1.390       .  A
C929        C937   1.388       .  A
C929        C940   1.420       .  A
C930        C938   1.385       .  A
C930        C941   1.417   1_545  A
C931        C932   1.372       .  A
C931        H943   1.082       .  S
C932        H944   1.082       .  S
C933        C934   1.370       .  A
C933        H945   1.081       .  S
C934        H946   1.082       .  S
C935        C936   1.380       .  A
C935        H947   1.082       .  S
C936        H948   1.082       .  S
C937        C938   1.380       .  A
C937        H949   1.083       .  S
C938        H950   1.082       .  S
C939       C1055   1.493   1_565  S
C941       C1045   1.489       .  S
N953        C958   1.360       .  A
N953        C957   1.358       .  A
N953        H985   1.037       .  S
N954        C961   1.350       .  A
N954        C962   1.350       .  A
N955        C960   1.355       .  A
N955        C959   1.357       .  A
N955        H986   1.038       .  S
N956        C963   1.349       .  A
N956        C964   1.349       .  A
C957        C965   1.390       .  A
C957        C973   1.431   1_554  A
C958        C974   1.426       .  A
C958        C966   1.385       .  A
C959        C967   1.386       .  A
C959        C976   1.420       .  A
C960        C975   1.422   1_556  A
C960        C968   1.389       .  A
C961        C973   1.410       .  A
C961        C969   1.387       .  A
C962        C976   1.411       .  A
C962        C970   1.387       .  A
C963        C971   1.389       .  A
C963        C974   1.412       .  A
C964        C972   1.384       .  A
C964        C975   1.403       .  A
C965        C966   1.382       .  A
C965        H977   1.081       .  S
C966        H978   1.082       .  S
C967        C968   1.380       .  A
C967        H979   1.082       .  S
C968        H980   1.083       .  S
C969        C970   1.367       .  A
C969        H981   1.082       .  S
C970        H982   1.082       .  S
C971        C972   1.369       .  A
C971        H983   1.082       .  S
C972        H984   1.083       .  S
C974       C1035   1.499       .  S
C976       C1022   1.489       .  S
N987        C992   1.351       .  A
N987        C991   1.350       .  A
N987       H1019   1.041       .  S
N988        C995   1.357       .  A
N988        C996   1.354       .  A
N989        C994   1.351       .  A
N989        C993   1.351       .  A
N989       H1020   1.038       .  S
N990        C997   1.354       .  A
N990        C998   1.355       .  A
C991        C999   1.388       .  A
C991       C1007   1.412       .  A
C992       C1008   1.406       .  A
C992       C1000   1.386       .  A
C993       C1001   1.387       .  A
C993       C1010   1.409       .  A
C994       C1009   1.414       .  A
C994       C1002   1.389       .  A
C995       C1007   1.421       .  A
C995       C1003   1.384       .  A
C996       C1010   1.424       .  A
C996       C1004   1.389       .  A
C997       C1005   1.388       .  A
C997       C1008   1.421       .  A
C998       C1006   1.385       .  A
C998       C1009   1.419       .  A
C999       C1000   1.372       .  A
C999       H1011   1.083       .  S
C1000      H1012   1.082       .  S
C1001      C1002   1.370       .  A
C1001      H1013   1.082       .  S
C1002      H1014   1.082       .  S
C1003      C1004   1.379       .  A
C1003      H1015   1.082       .  S
C1004      H1016   1.082       .  S
C1005      C1006   1.380       .  A
C1005      H1017   1.082       .  S
C1006      H1018   1.082       .  S
C1007      C1032   1.498       .  S
C1009      C1025   1.488       .  S
C1021      C1022   1.404       .  A
C1021      C1026   1.399       .  A
C1021      H1028   1.083       .  S
C1022      C1023   1.409       .  A
C1023      C1024   1.402       .  A
C1023     Br1030   1.917       .  S
C1024      C1025   1.405       .  A
C1024      H1029   1.083       .  S
C1025      C1026   1.408       .  A
C1026     Br1027   1.917       .  S
C1031      C1032   1.408       .  A
C1031      C1036   1.401       .  A
C1031      H1038   1.084       .  S
C1032      C1033   1.409       .  A
C1033      C1034   1.405       .  A
C1033     Br1040   1.919       .  S
C1034      C1035   1.411       .  A
C1034      H1039   1.083       .  S
C1035      C1036   1.408       .  A
C1036     Br1037   1.919       .  S
C1041      C1042   1.403   1_545  A
C1041      C1046   1.401       .  A
C1041      H1048   1.083       .  S
C1042      C1403   1.410       .  A
C1043      C1402   1.411       .  A
C1043      C1044   1.402       .  A
C1043     Br1050   1.918       .  S
C1044      C1405   1.404       .  A
C1044      H1049   1.083       .  S
C1045      C1404   1.404       .  A
C1045      C1046   1.409   1_565  A
C1046     Br1047   1.917       .  S
C1051      C1412   1.405       .  A
C1051      C1056   1.401       .  A
C1051      H1058   1.083       .  S
C1052      C1411   1.405   1_545  A
C1052      C1053   1.408       .  A
C1053      C1054   1.404       .  A
C1053     Br1060   1.918       .  S
C1054      C1055   1.407       .  A
C1054      H1059   1.083       .  S
C1055      C1416   1.408   1_545  A
C1056      C1415   1.408       .  A
C1056     Br1057   1.917       .  S
C1061      C1062   1.406   1_655  A
C1061      C1066   1.400       .  A
C1061      H1068   1.084       .  S
C1063      C1064   1.401       .  A
C1063     Br1070   1.918       .  S
C1064      H1069   1.083       .  S
C1065      C1066   1.407   1_455  A
C1066     Br1067   1.918       .  S
C1071      C1076   1.404       .  A
C1071      H1078   1.083       .  S
C1072      C1073   1.408   1_455  A
C1073      C1074   1.402       .  A
C1073     Br1080   1.916       .  S
C1074      C1075   1.405   1_655  A
C1074      H1079   1.083       .  S
C1076     Br1077   1.918       .  S
N1081      C1086   1.353       .  A
N1081      H1113   1.039       .  S
N1082      C1089   1.355   1_455  A
N1082      C1090   1.354   1_455  A
N1083      C1088   1.350       .  A
N1083      H1114   1.039       .  S
N1084      C1091   1.353       .  A
N1084      C1092   1.354       .  A
C1085      C1093   1.386       .  A
C1085      C1101   1.412       .  A
C1086      C1102   1.413       .  A
C1086      C1094   1.388       .  A
C1087      C1095   1.385       .  A
C1087      C1104   1.405       .  A
C1088      C1103   1.412       .  A
C1088      C1096   1.389       .  A
C1089      C1101   1.418   1_655  A
C1089      C1097   1.385       .  A
C1090      C1104   1.420   1_654  A
C1090      C1098   1.387       .  A
C1091      C1099   1.390       .  A
C1091      C1102   1.423   1_556  A
C1092      C1100   1.384       .  A
C1092      C1103   1.418       .  A
C1093      H1105   1.082       .  S
C1094      H1106   1.081       .  S
C1095      H1107   1.082       .  S
C1096      H1108   1.083       .  S
C1097      C1098   1.380       .  A
C1097      H1109   1.082       .  S
C1098      H1110   1.082       .  S
C1099      C1100   1.380       .  A
C1099      H1111   1.082       .  S
C1100      H1112   1.082       .  S
C1101      C1435   1.493       .  S
C1104      C1166   1.480   1_455  S
N1115      C1120   1.357   1_655  A
N1115      C1119   1.356   1_655  A
N1115      H1147   1.043       .  S
N1116      C1123   1.350       .  A
N1116      C1124   1.349       .  A
N1117      C1122   1.355   1_655  A
N1117      C1121   1.356   1_655  A
N1117      H1148   1.044       .  S
N1118      C1125   1.351       .  A
N1118      C1126   1.352       .  A
C1119      C1127   1.389       .  A
C1119      C1135   1.426   1_455  A
C1120      C1136   1.424   1_455  A
C1120      C1128   1.386       .  A
C1121      C1129   1.386       .  A
C1121      C1138   1.422       .  A
C1122      C1137   1.427   1_455  A
C1122      C1130   1.391       .  A
C1123      C1135   1.405       .  A
C1123      C1131   1.385       .  A
C1124      C1138   1.412   1_655  A
C1124      C1132   1.389       .  A
C1125      C1133   1.387       .  A
C1125      C1136   1.413       .  A
C1126      C1134   1.386       .  A
C1126      C1137   1.411       .  A
C1127      C1128   1.382       .  A
C1127      H1139   1.083       .  S
C1128      H1140   1.083       .  S
C1129      C1130   1.382       .  A
C1129      H1141   1.083       .  S
C1130      H1142   1.082       .  S
C1131      C1132   1.369       .  A
C1131      H1143   1.082       .  S
C1132      H1144   1.082       .  S
C1133      C1134   1.370       .  A
C1133      H1145   1.082       .  S
C1134      H1146   1.082       .  S
C1135      C1202   1.482   1_655  S
C1136      C1432   1.495   1_655  S
C1137      C1214   1.485       .  S
C1138      C1425   1.491       .  S
O1149      C1184   1.232       .  S
O1149     Mg1157   2.162   1_556  S
C1150      H1189   1.081       .  S
C1150      O1163   1.233       .  S
C1150      O1187   1.268       .  A
Mg1151     O1180   2.162   1_556  S
Mg1151     O1195   2.287   1_556  S
Mg1151     O1191   2.276       .  S
Mg1151     O1162   2.304       .  S
O1152      C1173   1.233       .  S
O1152     Mg1194   2.178   1_556  S
O1152     Mg1177   2.170       .  S
O1153     Mg1177   2.305   1_455  S
C1154      O1168   1.272   1_455  A
O1155     Mg1157   2.308   1_545  S
O1156     Mg1188   2.260       .  S
Mg1157     O1171   2.266       .  S
Mg1157     O1159   2.290   1_554  S
C1158      C1266   1.482       .  S
C1158      O1196   1.270       .  A
H1160      C1173   1.081       .  S
C1161      H1186   1.081       .  S
C1161      O1175   1.232       .  S
O1162      C1185   1.269       .  A
O1163     Mg1177   2.166   1_554  S
O1164     Mg1194   2.293   1_556  S
C1165      C1335   1.475       .  S
C1165      O1178   1.271       .  A
C1165      O1170   1.270       .  A
C1166      O1193   1.271       .  A
Mg1167     O1175   2.165   1_556  S
Mg1167     O1168   2.295   1_556  S
Mg1167     O1169   2.306       .  S
Mg1167     O1196   2.258       .  S
O1170     Mg1177   2.274   1_554  S
O1172      C1192   1.271       .  A
O1172     Mg1188   2.287   1_556  S
O1174      C1185   1.234       .  S
O1174     Mg1188   2.170   1_556  S
O1176     Mg1188   2.299       .  S
Mg1177     O1193   2.275       .  S
O1178     Mg1194   2.270       .  S
H1179      C1184   1.081       .  S
O1180      C1183   1.233       .  S
O1180     Mg1188   2.166       .  S
H1181      C1183   1.081       .  S
H1182      C1185   1.081       .  S
O1187     Mg1194   2.298       .  S
C1190      C1268   1.479       .  S
C1190      O1195   1.271       .  A
O1191      C1192   1.272       .  A
C1192      C1333   1.487       .  S
O1197      C1232   1.232       .  S
O1197     Mg1205   2.169       .  S
C1198      H1237   1.081       .  S
C1198      O1211   1.233       .  S
C1198      O1235   1.269       .  A
Mg1199     O1228   2.171       .  S
Mg1199     O1243   2.293       .  S
Mg1199     O1239   2.273       .  S
Mg1199     O1210   2.305       .  S
O1200      C1221   1.233       .  S
O1200     Mg1242   2.167       .  S
O1200     Mg1225   2.167       .  S
O1201     Mg1225   2.304   1_455  S
C1202      O1216   1.271   1_455  A
O1203     Mg1205   2.308   1_545  S
O1204     Mg1236   2.283       .  S
Mg1205     O1219   2.253       .  S
Mg1205     O1207   2.293       .  S
C1206      C1300   1.478       .  S
C1206      O1244   1.269       .  A
H1208      C1221   1.081       .  S
C1209      H1234   1.081       .  S
C1209      O1223   1.233       .  S
O1210      C1233   1.268       .  A
O1211     Mg1225   2.170       .  S
O1212     Mg1242   2.288       .  S
C1213      C1370   1.479       .  S
C1213      O1226   1.270       .  A
C1213      O1218   1.271       .  A
C1214      O1241   1.271       .  A
Mg1215     O1223   2.163       .  S
Mg1215     O1216   2.288       .  S
Mg1215     O1217   2.307       .  S
Mg1215     O1244   2.267       .  S
O1218     Mg1225   2.286       .  S
O1220      C1240   1.272       .  A
O1220     Mg1236   2.286       .  S
O1222      C1233   1.232       .  S
O1222     Mg1236   2.162       .  S
O1224     Mg1236   2.305       .  S
Mg1225     O1241   2.272       .  S
O1226     Mg1242   2.261       .  S
H1227      C1232   1.081       .  S
O1228      C1231   1.233       .  S
O1228     Mg1236   2.172       .  S
H1229      C1231   1.081       .  S
H1230      C1233   1.081       .  S
O1235     Mg1242   2.304       .  S
C1238      C1302   1.483       .  S
C1238      O1243   1.273       .  A
O1239      C1240   1.271       .  A
C1240      C1368   1.479       .  S
N1245      C1250   1.357       .  A
N1245      C1249   1.358       .  A
N1245      H1277   1.036       .  S
N1246      C1253   1.349       .  A
N1246      C1254   1.350       .  A
N1247      C1252   1.357       .  A
N1247      C1251   1.356       .  A
N1247      H1278   1.036       .  S
N1248      C1255   1.351       .  A
N1248      C1256   1.350       .  A
C1249      C1257   1.386       .  A
C1249      C1265   1.424       .  A
C1250      C1266   1.427   1_554  A
C1250      C1258   1.390       .  A
C1251      C1259   1.390       .  A
C1251      C1268   1.426   1_556  A
C1252      C1267   1.422       .  A
C1252      C1260   1.386       .  A
C1253      C1265   1.412       .  A
C1253      C1261   1.388       .  A
C1254      C1268   1.407       .  A
C1254      C1262   1.385       .  A
C1255      C1263   1.386       .  A
C1255      C1266   1.408       .  A
C1256      C1264   1.388       .  A
C1256      C1267   1.412       .  A
C1257      C1258   1.382       .  A
C1257      H1269   1.082       .  S
C1258      H1270   1.082       .  S
C1259      C1260   1.383       .  A
C1259      H1271   1.083       .  S
C1260      H1272   1.082       .  S
C1261      C1262   1.368       .  A
C1261      H1273   1.082       .  S
C1262      H1274   1.082       .  S
C1263      C1264   1.366       .  A
C1263      H1275   1.082       .  S
C1264      H1276   1.082       .  S
C1265      C1412   1.492       .  S
C1267      C1402   1.490       .  S
N1279      C1284   1.352       .  A
N1279      C1283   1.351       .  A
N1279      H1311   1.039       .  S
N1280      C1287   1.356       .  A
N1280      C1288   1.355       .  A
N1281      C1286   1.352       .  A
N1281      C1285   1.351       .  A
N1281      H1312   1.038       .  S
N1282      C1289   1.353       .  A
N1282      C1290   1.354       .  A
C1283      C1291   1.389       .  A
C1283      C1299   1.412       .  A
C1284      C1300   1.407       .  A
C1284      C1292   1.385       .  A
C1285      C1293   1.388       .  A
C1285      C1302   1.411       .  A
C1286      C1301   1.412       .  A
C1286      C1294   1.387       .  A
C1287      C1299   1.421       .  A
C1287      C1295   1.384       .  A
C1288      C1302   1.426       .  A
C1288      C1296   1.390       .  A
C1289      C1297   1.388       .  A
C1289      C1300   1.420       .  A
C1290      C1298   1.385       .  A
C1290      C1301   1.417       .  A
C1291      C1292   1.372       .  A
C1291      H1303   1.082       .  S
C1292      H1304   1.082       .  S
C1293      C1294   1.370       .  A
C1293      H1305   1.081       .  S
C1294      H1306   1.082       .  S
C1295      C1296   1.380       .  A
C1295      H1307   1.082       .  S
C1296      H1308   1.082       .  S
C1297      C1298   1.380       .  A
C1297      H1309   1.083       .  S
C1298      H1310   1.082       .  S
C1299      C1415   1.493       .  S
C1301      C1405   1.489       .  S
N1313      C1318   1.360       .  A
N1313      C1317   1.358       .  A
N1313      H1345   1.037       .  S
N1314      C1321   1.350       .  A
N1314      C1322   1.350       .  A
N1315      C1320   1.355       .  A
N1315      C1319   1.357       .  A
N1315      H1346   1.038       .  S
N1316      C1323   1.349       .  A
N1316      C1324   1.349       .  A
C1317      C1325   1.390       .  A
C1317      C1333   1.431   1_554  A
C1318      C1334   1.426       .  A
C1318      C1326   1.385       .  A
C1319      C1327   1.386       .  A
C1319      C1336   1.420       .  A
C1320      C1335   1.422   1_556  A
C1320      C1328   1.389       .  A
C1321      C1333   1.411       .  A
C1321      C1329   1.387       .  A
C1322      C1336   1.411       .  A
C1322      C1330   1.387       .  A
C1323      C1331   1.389       .  A
C1323      C1334   1.412       .  A
C1324      C1332   1.384       .  A
C1324      C1335   1.403       .  A
C1325      C1326   1.382       .  A
C1325      H1337   1.081       .  S
C1326      H1338   1.082       .  S
C1327      C1328   1.380       .  A
C1327      H1339   1.082       .  S
C1328      H1340   1.083       .  S
C1329      C1330   1.367       .  A
C1329      H1341   1.082       .  S
C1330      H1342   1.082       .  S
C1331      C1332   1.369       .  A
C1331      H1343   1.082       .  S
C1332      H1344   1.083       .  S
C1334      C1395   1.499       .  S
C1336      C1382   1.489       .  S
N1347      C1352   1.351       .  A
N1347      C1351   1.350       .  A
N1347      H1379   1.041       .  S
N1348      C1355   1.357       .  A
N1348      C1356   1.354       .  A
N1349      C1354   1.351       .  A
N1349      C1353   1.351       .  A
N1349      H1380   1.038       .  S
N1350      C1357   1.354       .  A
N1350      C1358   1.355       .  A
C1351      C1359   1.388       .  A
C1351      C1367   1.412       .  A
C1352      C1368   1.406       .  A
C1352      C1360   1.386       .  A
C1353      C1361   1.387       .  A
C1353      C1370   1.409       .  A
C1354      C1369   1.414       .  A
C1354      C1362   1.389       .  A
C1355      C1367   1.421       .  A
C1355      C1363   1.384       .  A
C1356      C1370   1.424       .  A
C1356      C1364   1.389       .  A
C1357      C1365   1.388       .  A
C1357      C1368   1.421       .  A
C1358      C1366   1.385       .  A
C1358      C1369   1.419       .  A
C1359      C1360   1.372       .  A
C1359      H1371   1.083       .  S
C1360      H1372   1.082       .  S
C1361      C1362   1.370       .  A
C1361      H1373   1.082       .  S
C1362      H1374   1.082       .  S
C1363      C1364   1.379       .  A
C1363      H1375   1.082       .  S
C1364      H1376   1.082       .  S
C1365      C1366   1.380       .  A
C1365      H1377   1.082       .  S
C1366      H1378   1.082       .  S
C1367      C1392   1.498       .  S
C1369      C1385   1.488       .  S
C1381      C1382   1.404       .  A
C1381      C1386   1.399       .  A
C1381      H1388   1.083       .  S
C1382      C1383   1.409       .  A
C1383      C1384   1.402       .  A
C1383     Br1390   1.917       .  S
C1384      C1385   1.405       .  A
C1384      H1389   1.083       .  S
C1385      C1386   1.408       .  A
C1386     Br1387   1.917       .  S
C1391      C1392   1.408       .  A
C1391      C1396   1.401       .  A
C1391      H1398   1.084       .  S
C1392      C1393   1.409       .  A
C1393      C1394   1.405       .  A
C1393     Br1400   1.919       .  S
C1394      C1395   1.411       .  A
C1394      H1399   1.083       .  S
C1395      C1396   1.408       .  A
C1396     Br1397   1.919       .  S
C1401      C1402   1.403       .  A
C1401      C1406   1.401       .  A
C1401      H1408   1.083       .  S
C1403      C1404   1.402       .  A
C1403     Br1410   1.918       .  S
C1404      H1409   1.083       .  S
C1405      C1406   1.409       .  A
C1406     Br1407   1.917       .  S
C1411      C1416   1.401       .  A
C1411      H1418   1.083       .  S
C1412      C1413   1.408       .  A
C1413      C1414   1.404       .  A
C1413     Br1420   1.918       .  S
C1414      C1415   1.407       .  A
C1414      H1419   1.083       .  S
C1416     Br1417   1.917       .  S
C1421      C1422   1.406   1_655  A
C1421      C1426   1.400       .  A
C1421      H1428   1.084       .  S
C1423      C1424   1.401       .  A
C1423     Br1430   1.918       .  S
C1424      H1429   1.083       .  S
C1425      C1426   1.407   1_455  A
C1426     Br1427   1.918       .  S
C1431      C1436   1.404       .  A
C1431      H1438   1.083       .  S
C1432      C1433   1.408   1_455  A
C1433      C1434   1.402       .  A
C1433     Br1440   1.916       .  S
C1434      C1435   1.405   1_655  A
C1434      H1439   1.083       .  S
C1436     Br1437   1.918       .  S
