geometry optimzed in LAMMPS
_audit_creation_date              2020-12-01 
_audit_creation_method            'lammps2cif' 
_symmetry_space_group_name_H-M    'P1' 
_symmetry_Int_Tables_number       1 
_symmetry_cell_setting            triclinic 
loop_ 
_symmetry_equiv_pos_as_xyz 
  x,y,z 
_cell_length_a                    35.93905583 
_cell_length_b                    36.19558351860084 
_cell_length_c                    26.04307251965089 
_cell_angle_alpha                 89.89999281203616 
_cell_angle_beta                  90.17126445985473 
_cell_angle_gamma                 120.59134240847337 
loop_ 
_atom_site_label 
_atom_site_type_symbol 
_atom_site_fract_x 
_atom_site_fract_y 
_atom_site_fract_z 
_atom_site_charge 
C1          C  0.33659185  0.16674155  0.05640662     0.30600
C2          C  0.33714274  0.17058091  0.95059666     0.30600
C3          C  0.35849565  0.14618311  0.02934230    -0.05600
C4          C  0.29222517  0.14613192  0.03086296    -0.06400
C5          C  0.35769018  0.21159852  0.03327392    -0.06300
C6          C  0.35894657  0.14700639  0.97591784    -0.05600
C7          C  0.29171888  0.14592337  0.97706876    -0.06400
C8          C  0.35882441  0.21411766  0.97977519    -0.06300
C9          C  0.37751089  0.12276146  0.96230711    -0.31700
N10         N  0.38889585  0.10982524  0.00581372     0.14800
C11         C  0.37688447  0.12347748  0.04682089    -0.31700
H12         H  0.38117689  0.11718404  0.08641199     0.16800
C13         C  0.24828148  0.12316428  0.96366278    -0.30600
N14         N  0.22405782  0.11332267  0.00717175     0.13600
C15         C  0.25051157  0.12829446  0.04812107    -0.30600
C16         C  0.37833164  0.25739070  0.96824866    -0.30900
N17         N  0.38789892  0.27988244  0.01308806     0.14100
H18         H  0.38521278  0.27148986  0.93026283     0.16700
C19         C  0.37454881  0.25228788  0.05273803    -0.30900
H20         H  0.37732603  0.26149318  0.09270529     0.16700
H21         H  0.23988987  0.12560490  0.08750797     0.16700
H22         H  0.38171336  0.11424930  0.92385145     0.16800
H23         H  0.23509610  0.11512191  0.92519265     0.16700
C24         C  0.33734426  0.16553372  0.44411961     0.30600
C25         C  0.33683491  0.17257836  0.54956265     0.30600
C26         C  0.35560985  0.14222413  0.47421831    -0.05600
C27         C  0.36178014  0.21082347  0.46540687    -0.06400
C28         C  0.29264747  0.14586650  0.46884292    -0.06300
C29         C  0.35693875  0.14666210  0.52746274    -0.05600
C30         C  0.36079147  0.21557100  0.51838534    -0.06400
C31         C  0.29174727  0.15083171  0.52196789    -0.06300
C32         C  0.37558238  0.12377940  0.54592207    -0.31700
N33         N  0.38331414  0.10485040  0.50537317     0.14800
C34         C  0.36958541  0.11443234  0.46209328    -0.31700
H35         H  0.37087079  0.10260956  0.42439885     0.16800
C36         C  0.37678159  0.25935503  0.52524670    -0.30600
N37         N  0.39001427  0.27985499  0.47907994     0.13600
C38         C  0.38082832  0.25044156  0.44235866    -0.30600
C39         C  0.24820483  0.13211303  0.53427283    -0.30900
N40         N  0.22394184  0.11388083  0.49120580     0.14100
H41         H  0.23500481  0.13028105  0.57211349     0.16700
C42         C  0.25078531  0.12096218  0.45156757    -0.30900
H43         H  0.24046744  0.10928366  0.41286442     0.16700
H44         H  0.38566992  0.25724469  0.40163179     0.16700
H45         H  0.38331487  0.12144283  0.58554607     0.16800
H46         H  0.37779869  0.27516829  0.56088201     0.16700
C47         C  0.16333019  0.32998356  0.04841232     0.30600
C48         C  0.16722084  0.33468348  0.94222953     0.30600
C49         C  0.14145002  0.35313960  0.02159311    -0.05600
C50         C  0.20920194  0.35541274  0.02378584    -0.06400
C51         C  0.14283382  0.28677034  0.01842083    -0.06300
C52         C  0.14208096  0.35324776  0.96783089    -0.05600
C53         C  0.20994793  0.35620605  0.97028061    -0.06400
C54         C  0.14396856  0.28955468  0.96472206    -0.06300
C55         C  0.11987632  0.37238657  0.95007015    -0.31700
N56         N  0.10919547  0.38788922  0.99059067     0.14800
C57         C  0.12238639  0.37712251  0.03436294    -0.31700
H58         H  0.11892239  0.38675151  0.07251386     0.16800
C59         C  0.25173105  0.37719850  0.95361359    -0.30600
N60         N  0.27733107  0.39073082  0.99512499     0.13600
C61         C  0.25242625  0.37884904  0.03825832    -0.30600
C62         C  0.12089441  0.24868888  0.94516774    -0.30900
N63         N  0.10878158  0.22101225  0.98476479     0.14100
H64         H  0.11373574  0.23947299  0.90524067     0.16700
C65         C  0.12137861  0.24345153  0.02967305    -0.30900
H66         H  0.11480557  0.22924312  0.06759930     0.16700
H67         H  0.26502115  0.38591576  0.07703645     0.16700
H68         H  0.11304537  0.37613335  0.91052508     0.16800
H69         H  0.26287042  0.38220029  0.91423937     0.16700
C70         C  0.15801769  0.32398557  0.45173878     0.30600
C71         C  0.15922671  0.33329333  0.55730422     0.30600
C72         C  0.13874556  0.35047977  0.47377521    -0.05600
C73         C  0.13400873  0.28136037  0.48426555    -0.06400
C74         C  0.20343234  0.34545977  0.47852762    -0.06300
C75         C  0.13989861  0.35471789  0.52675231    -0.05600
C76         C  0.13463273  0.28684551  0.53782847    -0.06400
C77         C  0.20323754  0.34951155  0.53195394    -0.06300
C78         C  0.12141136  0.37818348  0.54021029    -0.31700
N79         N  0.10895221  0.38903394  0.49690016     0.14800
C80         C  0.11884934  0.37230761  0.45581433    -0.31700
H81         H  0.11137566  0.37508438  0.41621744     0.16800
C82         C  0.11939399  0.24739524  0.56105219    -0.30600
N83         N  0.10839149  0.21760195  0.52411631     0.13600
C84         C  0.11907271  0.23778184  0.47767237    -0.30600
C85         C  0.24507449  0.36811481  0.54957406    -0.30900
N86         N  0.27137439  0.37778739  0.50896041     0.14100
H87         H  0.25611986  0.37507570  0.58896173     0.16700
C88         C  0.24675023  0.36309495  0.46548430    -0.30900
H89         H  0.25959721  0.36650768  0.42711924     0.16700
H90         H  0.11727850  0.22183637  0.44187914     0.16700
H91         H  0.11656847  0.38618050  0.57871628     0.16800
H92         H  0.11774529  0.24082573  0.60178451     0.16700
O93         O  0.05424827  0.48032851  0.03554136    -0.87800
C94         C  0.06877172  0.06269135  0.91775743     0.88300
Mg95       Mg  0.00379537  0.41375519  0.03490934     1.58100
O96         O  0.02189486  0.07419739  0.03199365    -0.87500
O97         O  0.07871974  0.03727436  0.08328663    -0.74800
C98         C  0.32313627  0.41176979  0.99276727     0.93300
O99         O  0.03320811  0.45619539  0.91493330    -0.74600
O100        O  0.34077253  0.39004201  0.98158197    -0.82100
Mg101      Mg  0.09124303  0.00287697  0.96482060     1.58000
C102        C  0.41070729  0.08626372  0.00877731     0.93200
O103        O  0.15715798  0.05136151  0.99803172    -0.80400
H104        H  0.02775606  0.09194723  0.10556526    -0.05700
C105        C  0.43289373  0.50136692  0.92130952     0.88200
O106        O  0.46050975  0.42634260  0.08811642    -0.74900
O107        O  0.07415759  0.05206151  0.96080856    -0.87700
O108        O  0.44939369  0.10403808  0.99296559    -0.80500
C109        C  0.08627418  0.17544719  0.98010625     0.93400
C110        C  0.17802288  0.09098927  0.00972032     0.93200
Mg111      Mg  0.41035425  0.49830155  0.03497813     1.58000
O112        O  0.34480387  0.45161964  0.00219871    -0.80400
O113        O  0.46764444  0.04497028  0.08461968    -0.74600
O114        O  0.10585201  0.15580177  0.99286609    -0.80500
O115        O  0.11038570  0.45200871  0.97479320    -0.82200
O116        O  0.39236716  0.34615908  0.01228604    -0.80500
C117        C  0.50683144  0.07177253  0.07506609     0.87600
O118        O  0.42757415  0.44944679  0.03892886    -0.87700
O119        O  0.44664524  0.01935918  0.96294508    -0.87800
O120        O  0.42007081  0.46192957  0.91586051    -0.74800
Mg121      Mg  0.08877483  0.09182093  0.02939309     1.58000
O122        O  0.04687661  0.15593321  0.96636304    -0.82200
H123        H  0.06643610  0.47951171  0.11030429    -0.05900
O124        O  0.47781107  0.42631741  0.96615323    -0.87500
H125        H  0.47302276  0.41059867  0.89188861    -0.05700
H126        H  0.41645985  0.44103008  0.11441625    -0.05900
C127        C  0.99354331  0.42981664  0.92320416     0.87600
C128        C  0.06675971  0.99804052  0.07754306     0.88200
C129        C  0.43367890  0.43884653  0.08168577     0.88300
H130        H  0.43287364  0.01979578  0.88862158    -0.05900
O131        O  0.04121979  0.07404055  0.91008518    -0.74900
Mg132      Mg  0.41066007  0.40868505  0.97136166     1.58000
H133        H  0.08706989  0.06122432  0.88575234    -0.05900
C134        C  0.08836299  0.41251945  0.98713568     0.93200
O135        O  0.45212676  0.34392304  0.02730095    -0.82200
C136        C  0.41184170  0.32541603  0.01825637     0.93300
O137        O  0.15938167  0.11164069  0.02177607    -0.82100
Mg138      Mg  0.49636224  0.08570911  0.96119136     1.58200
O139        O  0.04837585  0.39419214  0.99769914    -0.80500
O140        O  0.39067251  0.04816034  0.02605009    -0.82200
O141        O  0.01986933  0.45142558  0.45500442    -0.87800
C142        C  0.43088587  0.42123381  0.57099162     0.88300
Mg143      Mg  0.08751750  0.50018300  0.46096671     1.58100
O144        O  0.42148734  0.47773449  0.46485068    -0.87500
O145        O  0.46293891  0.42840401  0.40616923    -0.74800
C146        C  0.08735943  0.17208322  0.53217801     0.93300
O147        O  0.03763074  0.45681097  0.57730055    -0.74600
O148        O  0.11008051  0.15456672  0.53722094    -0.82100
Mg149      Mg  0.49384598  0.40614509  0.51788152     1.58000
C150        C  0.40799350  0.08402220  0.50527037     0.93200
O151        O  0.45051980  0.34799749  0.46776793    -0.80400
H152        H  0.41124148  0.48343810  0.39052253    -0.05700
C153        C  0.99176749  0.05328576  0.58904216     0.88200
O154        O  0.07681147  0.04907276  0.41703598    -0.74900
O155        O  0.44401619  0.42205239  0.52717262    -0.87700
O156        O  0.38857275  0.04351618  0.51121628    -0.80500
C157        C  0.31751392  0.40382104  0.51157849     0.93400
C158        C  0.40960174  0.32496912  0.47011457     0.93200
Mg159      Mg  0.00070601  0.08991156  0.48353532     1.58000
O160        O  0.04615857  0.14987745  0.53173941    -0.80400
O161        O  0.45643911  0.03893986  0.42433974    -0.74600
O162        O  0.33971023  0.38813510  0.49526977    -0.80500
O163        O  0.04473332  0.38858394  0.50556791    -0.82200
O164        O  0.15629175  0.10541792  0.50659945    -0.80500
C165        C  0.42853161  0.99912270  0.42531845     0.87600
O166        O  0.05107579  0.07421869  0.47358733    -0.87700
O167        O  0.47456414  0.04432702  0.54627986    -0.87800
O168        O  0.03193820  0.06736801  0.59442239    -0.74800
Mg169      Mg  0.40514921  0.41138973  0.45939344     1.58000
O170        O  0.33503665  0.44221731  0.52843384    -0.82200
H171        H  0.02285358  0.44711921  0.37875534    -0.05900
O172        O  0.07297284  0.01753314  0.53584044    -0.87500
H173        H  0.08317299  0.01250082  0.61036202    -0.05700
H174        H  0.06253430  0.09542604  0.40114730    -0.05900
C175        C  0.06582490  0.99650816  0.57571509     0.87600
C176        C  0.50303534  0.44250661  0.41204531     0.88200
C177        C  0.06361696  0.07423517  0.42962817     0.88300
H178        H  0.47226419  0.04888854  0.62258006    -0.05900
O179        O  0.41723139  0.44594546  0.58379250    -0.74900
Mg180      Mg  0.09004802  0.08395724  0.54152029     1.58000
H181        H  0.43188258  0.39978234  0.59914685    -0.05900
C182        C  0.08498089  0.41045049  0.49674514     0.93200
O183        O  0.15908463  0.05124123  0.47039651    -0.82200
C184        C  0.17763552  0.08920446  0.48853800     0.93300
O185        O  0.38590343  0.34134064  0.46521386    -0.82100
Mg186      Mg  0.40649127  0.99458055  0.53954074     1.58200
O187        O  0.10475076  0.45079826  0.48936174    -0.80500
O188        O  0.44848474  0.10652870  0.49727409    -0.82200
C189        C  0.20014849  0.38300791  0.68970206    -0.04900
C190        C  0.16922961  0.35034731  0.72146838     0.09300
C191        C  0.12984012  0.31805733  0.70034500    -0.02300
C192        C  0.12427511  0.31504233  0.64685520    -0.00500
C193        C  0.15955262  0.34205915  0.61480097    -0.04100
C194        C  0.19282570  0.38080339  0.63668933     0.02900
C195        C  0.17662026  0.35060525  0.77731615     0.09700
C196        C  0.09523253  0.28804920  0.73364358     0.35600
C197        C  0.21670363  0.41950720  0.60608115     0.39000
C198        C  0.17730545  0.38248815  0.80869102    -0.04500
C199        C  0.18176122  0.38038341  0.86169069     0.02700
C200        C  0.17430134  0.34144816  0.88422484    -0.04100
C201        C  0.18281519  0.31450834  0.85295414    -0.00300
C202        C  0.18324077  0.31876829  0.79922376    -0.02900
C203        C  0.17263358  0.41690472  0.78711540     0.36400
C204        C  0.19655408  0.28660165  0.87518314     0.40000
C205        C  0.19938844  0.41975724  0.89135942     0.39100
C206        C  0.19107794  0.29105845  0.76641131     0.36000
C207        C  0.23970066  0.41823825  0.71100520     0.36700
C208        C  0.08123871  0.28839264  0.62574218     0.40000
N209        N  0.21384996  0.45118043  0.91494986    -0.38100
N210        N  0.16883091  0.44438185  0.77015490    -0.39700
N211        N  0.20790323  0.26448193  0.89247385    -0.37400
N212        N  0.19761055  0.26923009  0.74013228    -0.39800
N213        N  0.06779029  0.26406583  0.76031152    -0.39600
N214        N  0.04671898  0.26749741  0.60919851    -0.37200
N215        N  0.23565119  0.45047499  0.58189217    -0.38300
N216        N  0.27122576  0.44641734  0.72788755    -0.39900
C217        C  0.12596368  0.28655705  0.30746367    -0.04900
C218        C  0.15799810  0.32185712  0.27925002     0.09300
C219        C  0.18711935  0.35905363  0.30706290    -0.02300
C220        C  0.18590418  0.36004036  0.36179965    -0.00500
C221        C  0.15697249  0.32285968  0.39095760    -0.04100
C222        C  0.12374563  0.28816242  0.36204452     0.02900
C223        C  0.15823766  0.32153255  0.22030426     0.09700
C224        C  0.21726806  0.39735294  0.27899640     0.35600
C225        C  0.08315504  0.25801028  0.38609728     0.39000
C226        C  0.12565657  0.32333149  0.19176887    -0.04500
C227        C  0.12474493  0.32114493  0.13716772     0.02700
C228        C  0.16018689  0.32440785  0.10883455    -0.04100
C229        C  0.18938783  0.31657304  0.13767132    -0.00300
C230        C  0.18902740  0.31626622  0.19257269    -0.02900
C231        C  0.09221590  0.32662136  0.21873260     0.36400
C232        C  0.21651344  0.30366559  0.11156110     0.40000
C233        C  0.08397618  0.30770563  0.11165298     0.39100
C234        C  0.21943767  0.30878856  0.22075397     0.36000
C235        C  0.09380110  0.24882021  0.27997587     0.36700
C236        C  0.21122716  0.40114348  0.38726306     0.40000
N237        N  0.05105791  0.29622754  0.09168840    -0.38100
N238        N  0.06561210  0.32931706  0.24035867    -0.39700
N239        N  0.23799718  0.29289028  0.09115564    -0.37400
N240        N  0.24352911  0.30258550  0.24330937    -0.39800
N241        N  0.24122498  0.42801841  0.25667709    -0.39600
N242        N  0.23093692  0.43414855  0.40730741    -0.37200
N243        N  0.05007934  0.23400823  0.40417116    -0.38300
N244        N  0.06798754  0.21879856  0.25808207    -0.39900
C245        C  0.30648568  0.13757002  0.69364224    -0.04900
C246        C  0.33584836  0.17487009  0.72106233     0.09300
C247        C  0.36772408  0.21016111  0.69288243    -0.02300
C248        C  0.37060976  0.20793451  0.63871537    -0.00500
C249        C  0.33729424  0.17333235  0.60999021    -0.04100
C250        C  0.30786994  0.13630984  0.63902218     0.02900
C251        C  0.33671190  0.17540686  0.77964633     0.09700
C252        C  0.39868399  0.24875372  0.72001097     0.35600
C253        C  0.28235144  0.09513497  0.61376194     0.39000
C254        C  0.37032153  0.17431933  0.80664985    -0.04500
C255        C  0.37320128  0.17803395  0.86095957     0.02700
C256        C  0.33865918  0.17541294  0.89048838    -0.04100
C257        C  0.30873400  0.18295260  0.86301732    -0.00300
C258        C  0.30698402  0.18158989  0.80831350    -0.02900
C259        C  0.40289228  0.17048280  0.77832083     0.36400
C260        C  0.28355270  0.19774756  0.89005713     0.40000
C261        C  0.41497916  0.19264929  0.88456786     0.39100
C262        C  0.27558754  0.18833093  0.78132293     0.36000
C263        C  0.27553447  0.09976093  0.72190481     0.36700
C264        C  0.41199195  0.23676066  0.61527682     0.40000
N265        N  0.44875928  0.20515023  0.90271990    -0.38100
N266        N  0.42876991  0.16737916  0.75554126    -0.39700
N267        N  0.26377233  0.21015346  0.91126296    -0.37400
N268        N  0.25061556  0.19387831  0.75982111    -0.39800
N269        N  0.42320382  0.27954222  0.74176842    -0.39600
N270        N  0.44565552  0.25947963  0.59763178    -0.38200
N271        N  0.26236642  0.06204186  0.59398018    -0.38300
N272        N  0.25076404  0.06956244  0.74435311    -0.39900
C273        C  0.30818465  0.12557237  0.19494463    -0.04900
C274        C  0.34050531  0.16134151  0.22158327     0.09300
C275        C  0.37560977  0.19462775  0.19491093    -0.02300
C276        C  0.37667850  0.19288251  0.14148300    -0.00500
C277        C  0.33904379  0.16297222  0.11439566    -0.04100
C278        C  0.30880983  0.12534679  0.14115796     0.02900
C279        C  0.33960025  0.16244352  0.27797664     0.09700
C280        C  0.41075798  0.23042090  0.22216819     0.35600
C281        C  0.28312048  0.08476771  0.11462450     0.39000
C282        C  0.37053969  0.15831062  0.30645095    -0.04500
C283        C  0.37335069  0.16514933  0.35940777     0.02700
C284        C  0.33922149  0.16602334  0.38554284    -0.04100
C285        C  0.31199937  0.17598255  0.35611680    -0.00300
C286        C  0.31131105  0.17277716  0.30246903    -0.02900
C287        C  0.40042164  0.14848867  0.28102128     0.36400
C288        C  0.28878693  0.19467662  0.37973053     0.40000
C289        C  0.41476293  0.17938067  0.38400347     0.39100
C290        C  0.28225315  0.18108344  0.27233586     0.36000
C291        C  0.27487818  0.08891409  0.22285884     0.36700
C292        C  0.41809191  0.21700224  0.11572623     0.40000
N293        N  0.44805563  0.19098646  0.40304580    -0.38100
N294        N  0.42406389  0.14060759  0.26047939    -0.39700
N295        N  0.27055676  0.20992295  0.39836577    -0.37400
N296        N  0.25897987  0.18757417  0.24841435    -0.39800
N297        N  0.43883868  0.25893467  0.24379718    -0.39600
N298        N  0.45114400  0.23550355  0.09516645    -0.37200
N299        N  0.26303952  0.05216287  0.09382336    -0.38300
N300        N  0.24818666  0.05976218  0.24507225    -0.39900
C301        C  0.33659187  0.66674153  0.05640662     0.30600
C302        C  0.33714276  0.67058094  0.95059666     0.30600
C303        C  0.35849569  0.64618310  0.02934227    -0.05600
C304        C  0.29222519  0.64613191  0.03086296    -0.06400
C305        C  0.35769018  0.71159851  0.03327393    -0.06300
C306        C  0.35894655  0.64700635  0.97591781    -0.05600
C307        C  0.29171889  0.64592342  0.97706876    -0.06400
C308        C  0.35882441  0.71411767  0.97977521    -0.06300
C309        C  0.37751087  0.62276143  0.96230708    -0.31700
N310        N  0.38889588  0.60982523  0.00581367     0.14800
C311        C  0.37688462  0.62347757  0.04682084    -0.31700
H312        H  0.38117711  0.61718418  0.08641198     0.16800
C313        C  0.24828150  0.62316427  0.96366277    -0.30600
N314        N  0.22405786  0.61332261  0.00717175     0.13600
C315        C  0.25051160  0.62829440  0.04812108    -0.30600
C316        C  0.37833148  0.75739070  0.96824871    -0.30900
N317        N  0.38789871  0.77988246  0.01308807     0.14100
H318        H  0.38521260  0.77148982  0.93026280     0.16700
C319        C  0.37454866  0.75228786  0.05273803    -0.30900
H320        H  0.37732587  0.76149313  0.09270530     0.16700
H321        H  0.23988989  0.62560481  0.08750798     0.16700
H322        H  0.38171330  0.61424923  0.92385142     0.16800
H323        H  0.23509613  0.61512186  0.92519265     0.16700
C324        C  0.33734431  0.66553381  0.44411960     0.30600
C325        C  0.33683487  0.67257834  0.54956265     0.30600
C326        C  0.35560986  0.64222416  0.47421832    -0.05600
C327        C  0.36178022  0.71082353  0.46540688    -0.06400
C328        C  0.29264747  0.64586658  0.46884285    -0.06300
C329        C  0.35693869  0.64666206  0.52746277    -0.05600
C330        C  0.36079148  0.71557101  0.51838535    -0.06400
C331        C  0.29174725  0.65083168  0.52196785    -0.06300
C332        C  0.37558235  0.62377936  0.54592207    -0.31700
N333        N  0.38331416  0.60485042  0.50537314     0.14800
C334        C  0.36958550  0.61443244  0.46209329    -0.31700
H335        H  0.37087095  0.60260975  0.42439879     0.16800
C336        C  0.37678159  0.75935502  0.52524673    -0.30600
N337        N  0.39001432  0.77985501  0.47908000     0.13600
C338        C  0.38082843  0.75044164  0.44235868    -0.30600
C339        C  0.24820481  0.63211297  0.53427283    -0.30900
N340        N  0.22394181  0.61388077  0.49120578     0.14100
H341        H  0.23500480  0.63028100  0.57211348     0.16700
C342        C  0.25078530  0.62096233  0.45156756    -0.30900
H343        H  0.24046739  0.60928392  0.41286423     0.16700
H344        H  0.38567005  0.75724483  0.40163182     0.16700
H345        H  0.38331484  0.62144277  0.58554606     0.16800
H346        H  0.37779859  0.77516824  0.56088207     0.16700
C347        C  0.16333020  0.82998357  0.04841235     0.30600
C348        C  0.16722085  0.83468350  0.94222957     0.30600
C349        C  0.14145009  0.85313970  0.02159314    -0.05600
C350        C  0.20920195  0.85541273  0.02378591    -0.06400
C351        C  0.14283379  0.78677034  0.01842085    -0.06300
C352        C  0.14208098  0.85324781  0.96783091    -0.05600
C353        C  0.20994794  0.85620608  0.97028068    -0.06400
C354        C  0.14396858  0.78955468  0.96472208    -0.06300
C355        C  0.11987630  0.87238657  0.95007017    -0.31700
N356        N  0.10919550  0.88788929  0.99059066     0.14800
C357        C  0.12238644  0.87712259  0.03436293    -0.31700
H358        H  0.11892238  0.88675157  0.07251389     0.16800
C359        C  0.25173103  0.87719844  0.95361366    -0.30600
N360        N  0.27733104  0.89073070  0.99512507     0.13600
C361        C  0.25242624  0.87884896  0.03825837    -0.30600
C362        C  0.12089446  0.74868887  0.94516775    -0.30900
N363        N  0.10878157  0.72101223  0.98476479     0.14100
H364        H  0.11373581  0.73947297  0.90524067     0.16700
C365        C  0.12137849  0.74345152  0.02967305    -0.30900
H366        H  0.11480536  0.72924310  0.06759931     0.16700
H367        H  0.26502118  0.88591571  0.07703660     0.16700
H368        H  0.11304529  0.87613327  0.91052506     0.16800
H369        H  0.26287039  0.88220021  0.91423941     0.16700
C370        C  0.15801767  0.82398554  0.45173881     0.30600
C371        C  0.15922670  0.83329330  0.55730424     0.30600
C372        C  0.13874561  0.85047980  0.47377521    -0.05600
C373        C  0.13400863  0.78136033  0.48426556    -0.06400
C374        C  0.20343232  0.84545967  0.47852764    -0.06300
C375        C  0.13989868  0.85471795  0.52675233    -0.05600
C376        C  0.13463264  0.78684548  0.53782848    -0.06400
C377        C  0.20323752  0.84951147  0.53195397    -0.06300
C378        C  0.12141136  0.87818346  0.54021023    -0.31700
N379        N  0.10895213  0.88903386  0.49690016     0.14800
C380        C  0.11884931  0.87230755  0.45581432    -0.31700
H381        H  0.11137561  0.87508432  0.41621744     0.16800
C382        C  0.11939401  0.74739521  0.56105220    -0.30600
N383        N  0.10839148  0.71760194  0.52411630     0.13600
C384        C  0.11907270  0.73778182  0.47767237    -0.30600
C385        C  0.24507446  0.86811473  0.54957407    -0.30900
N386        N  0.27137436  0.87778728  0.50896041     0.14100
H387        H  0.25611985  0.87507565  0.58896173     0.16700
C388        C  0.24675021  0.86309486  0.46548430    -0.30900
H389        H  0.25959720  0.86650763  0.42711925     0.16700
H390        H  0.11727857  0.72183637  0.44187915     0.16700
H391        H  0.11656838  0.88618049  0.57871632     0.16800
H392        H  0.11774534  0.74082570  0.60178451     0.16700
O393        O  0.05424829  0.98032856  0.03554135    -0.87800
C394        C  0.06877177  0.56269135  0.91775744     0.88300
Mg395      Mg  0.00379540  0.91375518  0.03490935     1.58100
O396        O  0.02189487  0.57419740  0.03199367    -0.87500
O397        O  0.07871957  0.53727432  0.08328658    -0.74800
C398        C  0.32313623  0.91176977  0.99276731     0.93300
O399        O  0.03320802  0.95619541  0.91493326    -0.74600
O400        O  0.34077254  0.89004204  0.98158200    -0.82100
Mg401      Mg  0.09124308  0.50287694  0.96482064     1.58000
C402        C  0.41070729  0.58626366  0.00877722     0.93200
O403        O  0.15715798  0.55136153  0.99803177    -0.80400
H404        H  0.02775594  0.59194727  0.10556520    -0.05700
C405        C  0.43289366  0.00136704  0.92130969     0.88200
O406        O  0.46050976  0.92634252  0.08811645    -0.74900
O407        O  0.07415759  0.55206149  0.96080856    -0.87700
O408        O  0.44939369  0.60403801  0.99296553    -0.80500
C409        C  0.08627419  0.67544717  0.98010624     0.93400
C410        C  0.17802293  0.59098929  0.00972033     0.93200
Mg411      Mg  0.41035424  0.99830162  0.03497817     1.58000
O412        O  0.34480379  0.95161963  0.00219873    -0.80400
O413        O  0.46764449  0.54497026  0.08461968    -0.74600
O414        O  0.10585206  0.65580177  0.99286605    -0.80500
O415        O  0.11038556  0.95200871  0.97479318    -0.82200
O416        O  0.39236729  0.84615930  0.01228636    -0.80500
C417        C  0.50683150  0.57177260  0.07506610     0.87600
O418        O  0.42757414  0.94944684  0.03892903    -0.87700
O419        O  0.44664521  0.51935909  0.96294498    -0.87800
O420        O  0.42007069  0.96192971  0.91586056    -0.74800
Mg421      Mg  0.08877488  0.59182100  0.02939309     1.58000
O422        O  0.04687662  0.65593316  0.96636306    -0.82200
H423        H  0.06643617  0.97951169  0.11030424    -0.05900
O424        O  0.47781099  0.92631741  0.96615341    -0.87500
H425        H  0.47302253  0.91059865  0.89188892    -0.05700
H426        H  0.41645994  0.94103002  0.11441651    -0.05900
C427        C  0.99354324  0.92981657  0.92320419     0.87600
C428        C  0.06675961  0.49804050  0.07754307     0.88200
C429        C  0.43367895  0.93884651  0.08168589     0.88300
H430        H  0.43287374  0.51979551  0.88862145    -0.05900
O431        O  0.04121995  0.57404071  0.91008520    -0.74900
Mg432      Mg  0.41066006  0.90868517  0.97136177     1.58000
H433        H  0.08706989  0.56122427  0.88575233    -0.05900
C434        C  0.08836293  0.91251943  0.98713567     0.93200
O435        O  0.45212678  0.84392296  0.02730091    -0.82200
C436        C  0.41184170  0.82541609  0.01825642     0.93300
O437        O  0.15938179  0.61164079  0.02177604    -0.82100
Mg438      Mg  0.49636228  0.58570908  0.96119135     1.58200
O439        O  0.04837579  0.89419206  0.99769916    -0.80500
O440        O  0.39067249  0.54816027  0.02605003    -0.82200
O441        O  0.01986925  0.95142558  0.45500447    -0.87800
C442        C  0.43088592  0.92123382  0.57099159     0.88300
Mg443      Mg  0.08751747  0.00018298  0.46096673     1.58100
O444        O  0.42148730  0.97773438  0.46485061    -0.87500
O445        O  0.46293893  0.92840395  0.40616923    -0.74800
C446        C  0.08735948  0.67208322  0.53217800     0.93300
O447        O  0.03763083  0.95681107  0.57730076    -0.74600
O448        O  0.11008060  0.65456678  0.53722095    -0.82100
Mg449      Mg  0.49384603  0.90614511  0.51788158     1.58000
C450        C  0.40799351  0.58402217  0.50527035     0.93200
O451        O  0.45051983  0.84799747  0.46776795    -0.80400
H452        H  0.41124154  0.98343797  0.39052250    -0.05700
C453        C  0.99176747  0.55328571  0.58904218     0.88200
O454        O  0.07681161  0.54907289  0.41703597    -0.74900
O455        O  0.44401633  0.92205253  0.52717260    -0.87700
O456        O  0.38857275  0.54351615  0.51121626    -0.80500
C457        C  0.31751388  0.90382099  0.51157850     0.93400
C458        C  0.40960178  0.82496912  0.47011462     0.93200
Mg459      Mg  0.00070601  0.58991155  0.48353534     1.58000
O460        O  0.04615862  0.64987741  0.53173943    -0.80400
O461        O  0.45643917  0.53893995  0.42433981    -0.74600
O462        O  0.33971025  0.88813510  0.49526981    -0.80500
O463        O  0.04473329  0.88858391  0.50556792    -0.82200
O464        O  0.15629175  0.60541791  0.50659949    -0.80500
C465        C  0.42853166  0.49912284  0.42531860     0.87600
O466        O  0.05107577  0.57421863  0.47358735    -0.87700
O467        O  0.47456411  0.54432699  0.54627984    -0.87800
O468        O  0.03193817  0.56736793  0.59442233    -0.74800
Mg469      Mg  0.40514924  0.91138968  0.45939344     1.58000
O470        O  0.33503656  0.94221727  0.52843382    -0.82200
H471        H  0.02285353  0.94711911  0.37875546    -0.05900
O472        O  0.07297286  0.51753312  0.53584042    -0.87500
H473        H  0.08317276  0.51250058  0.61036203    -0.05700
H474        H  0.06253427  0.59542608  0.40114736    -0.05900
C475        C  0.06582481  0.49650805  0.57571503     0.87600
C476        C  0.50303535  0.94250655  0.41204531     0.88200
C477        C  0.06361700  0.57423520  0.42962820     0.88300
H478        H  0.47226416  0.54888856  0.62257997    -0.05900
O479        O  0.41723136  0.94594539  0.58379253    -0.74900
Mg480      Mg  0.09004805  0.58395723  0.54152030     1.58000
H481        H  0.43188258  0.89978226  0.59914671    -0.05900
C482        C  0.08498086  0.91045043  0.49674513     0.93200
O483        O  0.15908456  0.55124120  0.47039650    -0.82200
C484        C  0.17763548  0.58920442  0.48853802     0.93300
O485        O  0.38590346  0.84134062  0.46521389    -0.82100
Mg486      Mg  0.40649129  0.49458058  0.53954077     1.58200
O487        O  0.10475075  0.95079821  0.48936174    -0.80500
O488        O  0.44848475  0.60652866  0.49727410    -0.82200
C489        C  0.20014857  0.88300798  0.68970210    -0.04900
C490        C  0.16922970  0.85034741  0.72146845     0.09300
C491        C  0.12984022  0.81805742  0.70034510    -0.02300
C492        C  0.12427509  0.81504239  0.64685530    -0.00500
C493        C  0.15955261  0.84205915  0.61480102    -0.04100
C494        C  0.19282573  0.88080337  0.63668935     0.02900
C495        C  0.17662035  0.85060535  0.77731621     0.09700
C496        C  0.09523272  0.78804925  0.73364375     0.35600
C497        C  0.21670365  0.91950715  0.60608113     0.39000
C498        C  0.17730559  0.88248827  0.80869107    -0.04500
C499        C  0.18176130  0.88038347  0.86169073     0.02700
C500        C  0.17430143  0.84144822  0.88422489    -0.04100
C501        C  0.18281530  0.81450842  0.85295421    -0.00300
C502        C  0.18324080  0.81876833  0.79922383    -0.02900
C503        C  0.17263376  0.91690492  0.78711552     0.36400
C504        C  0.19655413  0.78660166  0.87518318     0.40000
C505        C  0.19938850  0.91975727  0.89135949     0.39100
C506        C  0.19107798  0.79105849  0.76641135     0.36000
C507        C  0.23970075  0.91823834  0.71100520     0.36700
C508        C  0.08123868  0.78839259  0.62574230     0.40000
N509        N  0.21385001  0.95118046  0.91494992    -0.38100
N510        N  0.16883109  0.94438211  0.77015524    -0.39700
N511        N  0.20790322  0.76448188  0.89247383    -0.37400
N512        N  0.19761072  0.76923027  0.74013224    -0.39800
N513        N  0.06779043  0.76406598  0.76031165    -0.39600
N514        N  0.04671899  0.76749733  0.60919851    -0.37200
N515        N  0.23565121  0.95047494  0.58189216    -0.38300
N516        N  0.27122586  0.94641750  0.72788752    -0.39900
C517        C  0.12596373  0.78655702  0.30746383    -0.04900
C518        C  0.15799814  0.82185711  0.27925011     0.09300
C519        C  0.18711944  0.85905362  0.30706297    -0.02300
C520        C  0.18590424  0.86004034  0.36179972    -0.00500
C521        C  0.15697250  0.82285965  0.39095767    -0.04100
C522        C  0.12374565  0.78816236  0.36204466     0.02900
C523        C  0.15823766  0.82153249  0.22030433     0.09700
C524        C  0.21726824  0.89735295  0.27899644     0.35600
C525        C  0.08315499  0.75801023  0.38609738     0.39000
C526        C  0.12565661  0.82333149  0.19176889    -0.04500
C527        C  0.12474492  0.82114484  0.13716772     0.02700
C528        C  0.16018691  0.82440783  0.10883457    -0.04100
C529        C  0.18938784  0.81657299  0.13767137    -0.00300
C530        C  0.18902740  0.81626615  0.19257278    -0.02900
C531        C  0.09221601  0.82662148  0.21873260     0.36400
C532        C  0.21651346  0.80366553  0.11156113     0.40000
C533        C  0.08397617  0.80770564  0.11165297     0.39100
C534        C  0.21943767  0.80878850  0.22075410     0.36000
C535        C  0.09380116  0.74882023  0.27997606     0.36700
C536        C  0.21122713  0.90114344  0.38726316     0.40000
N537        N  0.05105791  0.79622779  0.09168845    -0.38100
N538        N  0.06561214  0.82931706  0.24035867    -0.39700
N539        N  0.23799719  0.79289022  0.09115565    -0.37400
N540        N  0.24352913  0.80258544  0.24330944    -0.39800
N541        N  0.24122508  0.92801841  0.25667708    -0.39600
N542        N  0.23093666  0.93414845  0.40730772    -0.37200
N543        N  0.05007918  0.73400822  0.40417113    -0.38300
N544        N  0.06798763  0.71879870  0.25808206    -0.39900
C545        C  0.30648568  0.63756992  0.69364226    -0.04900
C546        C  0.33584832  0.67487001  0.72106234     0.09300
C547        C  0.36772393  0.71016107  0.69288241    -0.02300
C548        C  0.37060968  0.70793446  0.63871535    -0.00500
C549        C  0.33729414  0.67333232  0.60999020    -0.04100
C550        C  0.30786990  0.63630977  0.63902219     0.02900
C551        C  0.33671189  0.67540680  0.77964633     0.09700
C552        C  0.39868376  0.74875370  0.72001095     0.35600
C553        C  0.28235144  0.59513490  0.61376194     0.39000
C554        C  0.37032156  0.67431933  0.80664984    -0.04500
C555        C  0.37320125  0.67803391  0.86095955     0.02700
C556        C  0.33865922  0.67541303  0.89048839    -0.04100
C557        C  0.30873400  0.68295262  0.86301734    -0.00300
C558        C  0.30698401  0.68158983  0.80831351    -0.02900
C559        C  0.40289239  0.67048292  0.77832081     0.36400
C560        C  0.28355264  0.69774752  0.89005712     0.40000
C561        C  0.41497911  0.69264922  0.88456786     0.39100
C562        C  0.27558755  0.68833087  0.78132293     0.36000
C563        C  0.27553442  0.59976085  0.72190482     0.36700
C564        C  0.41199192  0.73676058  0.61527684     0.40000
N565        N  0.44875918  0.70515022  0.90271997    -0.38100
N566        N  0.42876995  0.66737916  0.75554125    -0.39700
N567        N  0.26377216  0.71015336  0.91126289    -0.37400
N568        N  0.25061558  0.69387825  0.75982111    -0.39800
N569        N  0.42320357  0.77954218  0.74176843    -0.39600
N570        N  0.44565551  0.75947955  0.59763180    -0.38200
N571        N  0.26236643  0.56204180  0.59398018    -0.38300
N572        N  0.25076383  0.56956242  0.74435308    -0.39900
C573        C  0.30818466  0.62557231  0.19494464    -0.04900
C574        C  0.34050533  0.66134146  0.22158327     0.09300
C575        C  0.37560980  0.69462770  0.19491092    -0.02300
C576        C  0.37667854  0.69288247  0.14148298    -0.00500
C577        C  0.33904382  0.66297217  0.11439566    -0.04100
C578        C  0.30880985  0.62534674  0.14115796     0.02900
C579        C  0.33960028  0.66244351  0.27797664     0.09700
C580        C  0.41075800  0.73042085  0.22216818     0.35600
C581        C  0.28312050  0.58476765  0.11462450     0.39000
C582        C  0.37053969  0.65831056  0.30645096    -0.04500
C583        C  0.37335073  0.66514932  0.35940777     0.02700
C584        C  0.33922163  0.66602352  0.38554284    -0.04100
C585        C  0.31199960  0.67598282  0.35611677    -0.00300
C586        C  0.31131120  0.67277731  0.30246902    -0.02900
C587        C  0.40042164  0.64848860  0.28102129     0.36400
C588        C  0.28878709  0.69467682  0.37973051     0.40000
C589        C  0.41476296  0.67938062  0.38400346     0.39100
C590        C  0.28225320  0.68108345  0.27233585     0.36000
C591        C  0.27487819  0.58891403  0.22285884     0.36700
C592        C  0.41809194  0.71700220  0.11572614     0.40000
N593        N  0.44805565  0.69098641  0.40304580    -0.38100
N594        N  0.42406390  0.64060754  0.26047939    -0.39700
N595        N  0.27055676  0.70992296  0.39836580    -0.37400
N596        N  0.25897986  0.68757409  0.24841434    -0.39800
N597        N  0.43883870  0.75893461  0.24379718    -0.39600
N598        N  0.45114394  0.73550345  0.09516615    -0.37200
N599        N  0.26303953  0.55216281  0.09382336    -0.38300
N600        N  0.24818668  0.55976212  0.24507225    -0.39900
C601        C  0.83659188  0.16674154  0.05640662     0.30600
C602        C  0.83714276  0.17058091  0.95059666     0.30600
C603        C  0.85849571  0.14618311  0.02934229    -0.05600
C604        C  0.79222519  0.14613190  0.03086296    -0.06400
C605        C  0.85769019  0.21159852  0.03327393    -0.06300
C606        C  0.85894660  0.14700639  0.97591784    -0.05600
C607        C  0.79171889  0.14592336  0.97706876    -0.06400
C608        C  0.85882440  0.21411766  0.97977519    -0.06300
C609        C  0.87751090  0.12276146  0.96230706    -0.31700
N610        N  0.88889590  0.10982525  0.00581366     0.14800
C611        C  0.87688454  0.12347748  0.04682085    -0.31700
H612        H  0.88117697  0.11718402  0.08641195     0.16800
C613        C  0.74828149  0.12316428  0.96366278    -0.30600
N614        N  0.72405783  0.11332272  0.00717175     0.13600
C615        C  0.75051159  0.12829446  0.04812108    -0.30600
C616        C  0.87833150  0.25739070  0.96824867    -0.30900
N617        N  0.88789877  0.27988244  0.01308807     0.14100
H618        H  0.88521263  0.27148986  0.93026284     0.16700
C619        C  0.87454865  0.25228786  0.05273803    -0.30900
H620        H  0.87732582  0.26149315  0.09270530     0.16700
H621        H  0.73988988  0.12560487  0.08750797     0.16700
H622        H  0.88171332  0.11424927  0.92385144     0.16800
H623        H  0.73509608  0.11512188  0.92519266     0.16700
C624        C  0.83734424  0.16553371  0.44411961     0.30600
C625        C  0.83683492  0.17257836  0.54956264     0.30600
C626        C  0.85560981  0.14222408  0.47421832    -0.05600
C627        C  0.86178018  0.21082346  0.46540687    -0.06400
C628        C  0.79264745  0.14586651  0.46884289    -0.06300
C629        C  0.85693873  0.14666208  0.52746274    -0.05600
C630        C  0.86079150  0.21557100  0.51838534    -0.06400
C631        C  0.79174727  0.15083171  0.52196787    -0.06300
C632        C  0.87558241  0.12377942  0.54592206    -0.31700
N633        N  0.88331418  0.10485044  0.50537316     0.14800
C634        C  0.86958543  0.11443234  0.46209328    -0.31700
H635        H  0.87087083  0.10260961  0.42439884     0.16800
C636        C  0.87678161  0.25935502  0.52524669    -0.30600
N637        N  0.89001433  0.27985499  0.47907995     0.13600
C638        C  0.88082839  0.25044156  0.44235866    -0.30600
C639        C  0.74820483  0.13211300  0.53427284    -0.30900
N640        N  0.72394183  0.11388079  0.49120581     0.14100
H641        H  0.73500484  0.13028103  0.57211350     0.16700
C642        C  0.75078528  0.12096222  0.45156759    -0.30900
H643        H  0.74046736  0.10928373  0.41286433     0.16700
H644        H  0.88566997  0.25724469  0.40163179     0.16700
H645        H  0.88331493  0.12144287  0.58554605     0.16800
H646        H  0.87779865  0.27516828  0.56088201     0.16700
C647        C  0.66333022  0.32998357  0.04841232     0.30600
C648        C  0.66722086  0.33468350  0.94222954     0.30600
C649        C  0.64145005  0.35313961  0.02159311    -0.05600
C650        C  0.70920197  0.35541275  0.02378585    -0.06400
C651        C  0.64283383  0.28677034  0.01842083    -0.06300
C652        C  0.64208097  0.35324776  0.96783089    -0.05600
C653        C  0.70994796  0.35620610  0.97028062    -0.06400
C654        C  0.64396862  0.28955468  0.96472206    -0.06300
C655        C  0.61987631  0.37238656  0.95007018    -0.31700
N656        N  0.60919546  0.38788922  0.99059066     0.14800
C657        C  0.62238641  0.37712252  0.03436294    -0.31700
H658        H  0.61892243  0.38675154  0.07251386     0.16800
C659        C  0.75173105  0.37719849  0.95361358    -0.30600
N660        N  0.77733107  0.39073076  0.99512500     0.13600
C661        C  0.75242626  0.37884901  0.03825828    -0.30600
C662        C  0.62089443  0.24868888  0.94516775    -0.30900
N663        N  0.60878148  0.22101225  0.98476480     0.14100
H664        H  0.61373582  0.23947299  0.90524066     0.16700
C665        C  0.62137847  0.24345153  0.02967307    -0.30900
H666        H  0.61480539  0.22924312  0.06759932     0.16700
H667        H  0.76502122  0.38591575  0.07703650     0.16700
H668        H  0.61304534  0.37613331  0.91052506     0.16800
H669        H  0.76287041  0.38220025  0.91423937     0.16700
C670        C  0.65801767  0.32398558  0.45173878     0.30600
C671        C  0.65922673  0.33329333  0.55730422     0.30600
C672        C  0.63874560  0.35047981  0.47377521    -0.05600
C673        C  0.63400865  0.28136037  0.48426555    -0.06400
C674        C  0.70343235  0.34545973  0.47852761    -0.06300
C675        C  0.63989864  0.35471792  0.52675232    -0.05600
C676        C  0.63463269  0.28684551  0.53782847    -0.06400
C677        C  0.70323755  0.34951153  0.53195394    -0.06300
C678        C  0.62141136  0.37818348  0.54021029    -0.31700
N679        N  0.60895218  0.38903391  0.49690015     0.14800
C680        C  0.61884936  0.37230761  0.45581432    -0.31700
H681        H  0.61137569  0.37508440  0.41621743     0.16800
C682        C  0.61939405  0.24739524  0.56105220    -0.30600
N683        N  0.60839155  0.21760196  0.52411631     0.13600
C684        C  0.61907274  0.23778185  0.47767237    -0.30600
C685        C  0.74507450  0.36811478  0.54957406    -0.30900
N686        N  0.77137440  0.37778734  0.50896041     0.14100
H687        H  0.75611988  0.37507570  0.58896172     0.16700
C688        C  0.74675025  0.36309492  0.46548429    -0.30900
H689        H  0.75959725  0.36650769  0.42711924     0.16700
H690        H  0.61727860  0.22183642  0.44187914     0.16700
H691        H  0.61656848  0.38618054  0.57871626     0.16800
H692        H  0.61774538  0.24082575  0.60178451     0.16700
O693        O  0.55424832  0.48032850  0.03554137    -0.87800
C694        C  0.56877172  0.06269135  0.91775746     0.88300
Mg695      Mg  0.50379536  0.41375520  0.03490931     1.58100
O696        O  0.52189483  0.07419739  0.03199364    -0.87500
O697        O  0.57871957  0.03727434  0.08328666    -0.74800
C698        C  0.82313626  0.41176981  0.99276727     0.93300
O699        O  0.53320822  0.45619540  0.91493327    -0.74600
O700        O  0.84077255  0.39004207  0.98158199    -0.82100
Mg701      Mg  0.59124302  0.00287697  0.96482062     1.58000
C702        C  0.91070733  0.08626372  0.00877720     0.93200
O703        O  0.65715802  0.05136151  0.99803172    -0.80400
H704        H  0.52775606  0.09194717  0.10556527    -0.05700
C705        C  0.93289379  0.50136700  0.92130971     0.88200
O706        O  0.96050978  0.42634259  0.08811642    -0.74900
O707        O  0.57415748  0.05206146  0.96080860    -0.87700
O708        O  0.94939374  0.10403808  0.99296553    -0.80500
C709        C  0.58627416  0.17544720  0.98010624     0.93400
C710        C  0.67802289  0.09098928  0.00972033     0.93200
Mg711      Mg  0.91035428  0.49830163  0.03497813     1.58000
O712        O  0.84480383  0.45161967  0.00219872    -0.80400
O713        O  0.96764446  0.04497026  0.08461970    -0.74600
O714        O  0.60585205  0.15580183  0.99286607    -0.80500
O715        O  0.61038563  0.45200870  0.97479319    -0.82200
O716        O  0.89236720  0.34615914  0.01228604    -0.80500
C717        C  0.00683145  0.07177255  0.07506608     0.87600
O718        O  0.92757419  0.44944684  0.03892888    -0.87700
O719        O  0.94664530  0.01935918  0.96294508    -0.87800
O720        O  0.92007090  0.46192970  0.91586054    -0.74800
Mg721      Mg  0.58877475  0.09182093  0.02939309     1.58000
O722        O  0.54687660  0.15593316  0.96636303    -0.82200
H723        H  0.56643621  0.47951173  0.11030427    -0.05900
O724        O  0.97781102  0.42631744  0.96615339    -0.87500
H725        H  0.97302264  0.41059876  0.89188887    -0.05700
H726        H  0.91645989  0.44103007  0.11441627    -0.05900
C727        C  0.49354345  0.42981668  0.92320410     0.87600
C728        C  0.56675967  0.99804054  0.07754303     0.88200
C729        C  0.93367894  0.43884654  0.08168578     0.88300
H730        H  0.93287370  0.01979578  0.88862158    -0.05900
O731        O  0.54121980  0.07404058  0.91008511    -0.74900
Mg732      Mg  0.91066007  0.40868509  0.97136169     1.58000
H733        H  0.58706996  0.06122436  0.88575243    -0.05900
C734        C  0.58836295  0.41251943  0.98713569     0.93200
O735        O  0.95212674  0.34392297  0.02730094    -0.82200
C736        C  0.91184167  0.32541603  0.01825637     0.93300
O737        O  0.65938162  0.11164066  0.02177608    -0.82100
Mg738      Mg  0.99636227  0.08570911  0.96119137     1.58200
O739        O  0.54837580  0.39419210  0.99769918    -0.80500
O740        O  0.89067256  0.04816034  0.02605002    -0.82200
O741        O  0.51986926  0.45142561  0.45500446    -0.87800
C742        C  0.93088593  0.42123382  0.57099162     0.88300
Mg743      Mg  0.58751751  0.50018300  0.46096671     1.58100
O744        O  0.92148739  0.47773449  0.46485069    -0.87500
O745        O  0.96293897  0.42840402  0.40616927    -0.74800
C746        C  0.58735949  0.17208322  0.53217801     0.93300
O747        O  0.53763078  0.45681097  0.57730055    -0.74600
O748        O  0.61008057  0.15456672  0.53722094    -0.82100
Mg749      Mg  0.99384602  0.40614508  0.51788152     1.58000
C750        C  0.90799353  0.08402221  0.50527037     0.93200
O751        O  0.95051986  0.34799748  0.46776793    -0.80400
H752        H  0.91124156  0.48343809  0.39052252    -0.05700
C753        C  0.49176759  0.05328576  0.58904214     0.88200
O754        O  0.57681151  0.04907275  0.41703598    -0.74900
O755        O  0.94401625  0.42205239  0.52717262    -0.87700
O756        O  0.88857277  0.04351619  0.51121627    -0.80500
C757        C  0.81751392  0.40382104  0.51157850     0.93400
C758        C  0.90960180  0.32496912  0.47011457     0.93200
Mg759      Mg  0.50070603  0.08991156  0.48353531     1.58000
O760        O  0.54615863  0.14987746  0.53173941    -0.80400
O761        O  0.95643915  0.03893984  0.42433981    -0.74600
O762        O  0.83971029  0.38813516  0.49526981    -0.80500
O763        O  0.54473332  0.38858396  0.50556790    -0.82200
O764        O  0.65629179  0.10541796  0.50659949    -0.80500
C765        C  0.92853160  0.99912274  0.42531861     0.87600
O766        O  0.55107584  0.07421869  0.47358733    -0.87700
O767        O  0.97456408  0.04432700  0.54627983    -0.87800
O768        O  0.53193828  0.06736800  0.59442235    -0.74800
Mg769      Mg  0.90514926  0.41138973  0.45939345     1.58000
O770        O  0.83503659  0.44221732  0.52843382    -0.82200
H771        H  0.52285353  0.44711917  0.37875544    -0.05900
O772        O  0.57297289  0.01753314  0.53584044    -0.87500
H773        H  0.58317306  0.01250081  0.61036202    -0.05700
H774        H  0.56253436  0.09542604  0.40114730    -0.05900
C775        C  0.56582496  0.99650815  0.57571509     0.87600
C776        C  0.00303537  0.44250661  0.41204532     0.88200
C777        C  0.56361702  0.07423517  0.42962817     0.88300
H778        H  0.97226412  0.04888860  0.62257996    -0.05900
O779        O  0.91723144  0.44594545  0.58379250    -0.74900
Mg780      Mg  0.59004808  0.08395724  0.54152029     1.58000
H781        H  0.93188265  0.39978234  0.59914685    -0.05900
C782        C  0.58498090  0.41045048  0.49674513     0.93200
O783        O  0.65908458  0.05124124  0.47039650    -0.82200
C784        C  0.67763550  0.08920446  0.48853803     0.93300
O785        O  0.88590349  0.34134064  0.46521387    -0.82100
Mg786      Mg  0.90649120  0.99458055  0.53954079     1.58200
O787        O  0.60475079  0.45079825  0.48936174    -0.80500
O788        O  0.94848477  0.10652870  0.49727409    -0.82200
C789        C  0.70014854  0.38300790  0.68970206    -0.04900
C790        C  0.66922961  0.35034733  0.72146836     0.09300
C791        C  0.62984017  0.31805736  0.70034495    -0.02300
C792        C  0.62427511  0.31504240  0.64685518    -0.00500
C793        C  0.65955263  0.34205918  0.61480096    -0.04100
C794        C  0.69282575  0.38080338  0.63668932     0.02900
C795        C  0.67662014  0.35060520  0.77731616     0.09700
C796        C  0.59523260  0.28804926  0.73364355     0.35600
C797        C  0.71670369  0.41950720  0.60608115     0.39000
C798        C  0.67730532  0.38248811  0.80869104    -0.04500
C799        C  0.68176117  0.38038341  0.86169069     0.02700
C800        C  0.67430135  0.34144818  0.88422485    -0.04100
C801        C  0.68281508  0.31450828  0.85295414    -0.00300
C802        C  0.68324062  0.31876821  0.79922375    -0.02900
C803        C  0.67263358  0.41690474  0.78711539     0.36400
C804        C  0.69655408  0.28660166  0.87518312     0.40000
C805        C  0.69938836  0.41975725  0.89135942     0.39100
C806        C  0.69107793  0.29105847  0.76641131     0.36000
C807        C  0.73970070  0.41823824  0.71100522     0.36700
C808        C  0.58123871  0.28839265  0.62574218     0.40000
N809        N  0.71384997  0.45118044  0.91494986    -0.38100
N810        N  0.66883098  0.44438190  0.77015487    -0.39700
N811        N  0.70790328  0.26448198  0.89247382    -0.37400
N812        N  0.69761061  0.26923014  0.74013233    -0.39800
N813        N  0.56779040  0.26406604  0.76031161    -0.39600
N814        N  0.54671899  0.26749737  0.60919849    -0.37200
N815        N  0.73565125  0.45047499  0.58189217    -0.38300
N816        N  0.77122581  0.44641734  0.72788755    -0.39900
C817        C  0.62596371  0.28655703  0.30746368    -0.04900
C818        C  0.65799814  0.32185711  0.27925003     0.09300
C819        C  0.68711941  0.35905360  0.30706291    -0.02300
C820        C  0.68590420  0.36004035  0.36179966    -0.00500
C821        C  0.65697243  0.32285970  0.39095760    -0.04100
C822        C  0.62374562  0.28816239  0.36204453     0.02900
C823        C  0.65823769  0.32153255  0.22030425     0.09700
C824        C  0.71726806  0.39735293  0.27899641     0.35600
C825        C  0.58315500  0.25801025  0.38609727     0.39000
C826        C  0.62565660  0.32333150  0.19176885    -0.04500
C827        C  0.62474493  0.32114490  0.13716769     0.02700
C828        C  0.66018692  0.32440785  0.10883454    -0.04100
C829        C  0.68938786  0.31657304  0.13767132    -0.00300
C830        C  0.68902738  0.31626614  0.19257270    -0.02900
C831        C  0.59221595  0.32662136  0.21873259     0.36400
C832        C  0.71651349  0.30366559  0.11156110     0.40000
C833        C  0.58397616  0.30770562  0.11165296     0.39100
C834        C  0.71943753  0.30878836  0.22075398     0.36000
C835        C  0.59380116  0.24882021  0.27997586     0.36700
C836        C  0.71122715  0.40114347  0.38726306     0.40000
N837        N  0.55105785  0.29622758  0.09168847    -0.38100
N838        N  0.56561215  0.32931706  0.24035867    -0.39700
N839        N  0.73799724  0.29289028  0.09115565    -0.37400
N840        N  0.74352908  0.30258544  0.24330936    -0.39800
N841        N  0.74122482  0.42801845  0.25667707    -0.39600
N842        N  0.73093674  0.43414856  0.40730741    -0.37200
N843        N  0.55007924  0.23400828  0.40417112    -0.38300
N844        N  0.56798759  0.21879855  0.25808207    -0.39900
C845        C  0.80648572  0.13756999  0.69364224    -0.04900
C846        C  0.83584836  0.17487006  0.72106233     0.09300
C847        C  0.86772397  0.21016111  0.69288239    -0.02300
C848        C  0.87060975  0.20793451  0.63871535    -0.00500
C849        C  0.83729426  0.17333234  0.60999020    -0.04100
C850        C  0.80786998  0.13630982  0.63902218     0.02900
C851        C  0.83671194  0.17540685  0.77964632     0.09700
C852        C  0.89868379  0.24875374  0.72001088     0.35600
C853        C  0.78235149  0.09513496  0.61376194     0.39000
C854        C  0.87032158  0.17431932  0.80664984    -0.04500
C855        C  0.87320130  0.17803393  0.86095956     0.02700
C856        C  0.83865920  0.17541293  0.89048837    -0.04100
C857        C  0.80873404  0.18295260  0.86301732    -0.00300
C858        C  0.80698407  0.18158989  0.80831349    -0.02900
C859        C  0.90289234  0.17048281  0.77832082     0.36400
C860        C  0.78355275  0.19774756  0.89005712     0.40000
C861        C  0.91497915  0.19264928  0.88456793     0.39100
C862        C  0.77558760  0.18833093  0.78132293     0.36000
C863        C  0.77553452  0.09976092  0.72190481     0.36700
C864        C  0.91199199  0.23676066  0.61527684     0.40000
N865        N  0.94875916  0.20515026  0.90272027    -0.38100
N866        N  0.92876996  0.16737916  0.75554125    -0.39700
N867        N  0.76377238  0.21015346  0.91126297    -0.37400
N868        N  0.75061562  0.19387831  0.75982111    -0.39800
N869        N  0.92320367  0.27954231  0.74176814    -0.39600
N870        N  0.94565557  0.25947962  0.59763179    -0.38200
N871        N  0.76236648  0.06204186  0.59398018    -0.38300
N872        N  0.75076409  0.06956243  0.74435311    -0.39900
C873        C  0.80818457  0.12557242  0.19494462    -0.04900
C874        C  0.84050527  0.16134155  0.22158326     0.09300
C875        C  0.87560978  0.19462778  0.19491092    -0.02300
C876        C  0.87667851  0.19288257  0.14148298    -0.00500
C877        C  0.83904382  0.16297223  0.11439565    -0.04100
C878        C  0.80880984  0.12534680  0.14115795     0.02900
C879        C  0.83960023  0.16244352  0.27797665     0.09700
C880        C  0.91075801  0.23042088  0.22216819     0.35600
C881        C  0.78312054  0.08476770  0.11462450     0.39000
C882        C  0.87053968  0.15831064  0.30645097    -0.04500
C883        C  0.87335070  0.16514934  0.35940779     0.02700
C884        C  0.83922149  0.16602333  0.38554286    -0.04100
C885        C  0.81199938  0.17598258  0.35611683    -0.00300
C886        C  0.81131106  0.17277717  0.30246906    -0.02900
C887        C  0.90042161  0.14848868  0.28102129     0.36400
C888        C  0.78878691  0.19467664  0.37973053     0.40000
C889        C  0.91476295  0.17938066  0.38400349     0.39100
C890        C  0.78225319  0.18108345  0.27233587     0.36000
C891        C  0.77487817  0.08891408  0.22285883     0.36700
C892        C  0.91809193  0.21700226  0.11572616     0.40000
N893        N  0.94805567  0.19098646  0.40304579    -0.38100
N894        N  0.92406379  0.14060756  0.26047931    -0.39700
N895        N  0.77055663  0.20992290  0.39836571    -0.37400
N896        N  0.75897992  0.18757417  0.24841434    -0.39800
N897        N  0.93883872  0.25893465  0.24379717    -0.39600
N898        N  0.95114394  0.23550348  0.09516619    -0.37200
N899        N  0.76303957  0.05216286  0.09382335    -0.38300
N900        N  0.74818671  0.05976215  0.24507227    -0.39900
C901        C  0.83659190  0.66674151  0.05640660     0.30600
C902        C  0.83714278  0.67058092  0.95059665     0.30600
C903        C  0.85849573  0.64618310  0.02934227    -0.05600
C904        C  0.79222520  0.64613188  0.03086293    -0.06400
C905        C  0.85769024  0.71159850  0.03327393    -0.06300
C906        C  0.85894659  0.64700635  0.97591781    -0.05600
C907        C  0.79171889  0.64592341  0.97706874    -0.06400
C908        C  0.85882446  0.71411766  0.97977521    -0.06300
C909        C  0.87751091  0.62276141  0.96230706    -0.31700
N910        N  0.88889594  0.60982524  0.00581367     0.14800
C911        C  0.87688468  0.62347757  0.04682083    -0.31700
H912        H  0.88117717  0.61718418  0.08641197     0.16800
C913        C  0.74828147  0.62316434  0.96366277    -0.30600
N914        N  0.72405785  0.61332267  0.00717178     0.13600
C915        C  0.75051161  0.62829439  0.04812109    -0.30600
C916        C  0.87833151  0.75739069  0.96824871    -0.30900
N917        N  0.88789875  0.77988246  0.01308807     0.14100
H918        H  0.88521255  0.77148981  0.93026280     0.16700
C919        C  0.87454869  0.75228786  0.05273803    -0.30900
H920        H  0.87732584  0.76149312  0.09270529     0.16700
H921        H  0.73988991  0.62560477  0.08750799     0.16700
H922        H  0.88171331  0.61424919  0.92385145     0.16800
H923        H  0.73509605  0.61512196  0.92519268     0.16700
C924        C  0.83734427  0.66553378  0.44411960     0.30600
C925        C  0.83683488  0.67257833  0.54956264     0.30600
C926        C  0.85560982  0.64222411  0.47421832    -0.05600
C927        C  0.86178023  0.71082350  0.46540687    -0.06400
C928        C  0.79264746  0.64586660  0.46884287    -0.06300
C929        C  0.85693869  0.64666203  0.52746277    -0.05600
C930        C  0.86079152  0.71557099  0.51838533    -0.06400
C931        C  0.79174725  0.65083172  0.52196786    -0.06300
C932        C  0.87558238  0.62377937  0.54592207    -0.31700
N933        N  0.88331414  0.60485038  0.50537315     0.14800
C934        C  0.86958552  0.61443243  0.46209328    -0.31700
H935        H  0.87087099  0.60260973  0.42439879     0.16800
C936        C  0.87678163  0.75935500  0.52524671    -0.30600
N937        N  0.89001438  0.77985500  0.47907999     0.13600
C938        C  0.88082847  0.75044161  0.44235868    -0.30600
C939        C  0.74820480  0.63211296  0.53427284    -0.30900
N940        N  0.72394182  0.61388075  0.49120580     0.14100
H941        H  0.73500475  0.63028093  0.57211350     0.16700
C942        C  0.75078530  0.62096231  0.45156758    -0.30900
H943        H  0.74046736  0.60928383  0.41286426     0.16700
H944        H  0.88567007  0.75724479  0.40163181     0.16700
H945        H  0.88331489  0.62144278  0.58554606     0.16800
H946        H  0.87779862  0.77516823  0.56088204     0.16700
C947        C  0.66333016  0.82998358  0.04841234     0.30600
C948        C  0.66722084  0.83468350  0.94222958     0.30600
C949        C  0.64145008  0.85313970  0.02159315    -0.05600
C950        C  0.70920192  0.85541275  0.02378589    -0.06400
C951        C  0.64283373  0.78677034  0.01842085    -0.06300
C952        C  0.64208100  0.85324783  0.96783094    -0.05600
C953        C  0.70994793  0.85620607  0.97028065    -0.06400
C954        C  0.64396856  0.78955468  0.96472209    -0.06300
C955        C  0.61987633  0.87238657  0.95007017    -0.31700
N956        N  0.60919551  0.88788929  0.99059064     0.14800
C957        C  0.62238638  0.87712256  0.03436295    -0.31700
H958        H  0.61892224  0.88675149  0.07251386     0.16800
C959        C  0.75173103  0.87719842  0.95361366    -0.30600
N960        N  0.77733101  0.89073074  0.99512510     0.13600
C961        C  0.75242617  0.87884901  0.03825837    -0.30600
C962        C  0.62089445  0.74868887  0.94516776    -0.30900
N963        N  0.60878151  0.72101223  0.98476480     0.14100
H964        H  0.61373584  0.73947297  0.90524067     0.16700
C965        C  0.62137846  0.74345152  0.02967306    -0.30900
H966        H  0.61480545  0.72924311  0.06759931     0.16700
H967        H  0.76502106  0.88591574  0.07703666     0.16700
H968        H  0.61304532  0.87613326  0.91052506     0.16800
H969        H  0.76287043  0.88220017  0.91423943     0.16700
C970        C  0.65801769  0.82398554  0.45173882     0.30600
C971        C  0.65922669  0.83329331  0.55730424     0.30600
C972        C  0.63874567  0.85047983  0.47377521    -0.05600
C973        C  0.63400857  0.78136034  0.48426556    -0.06400
C974        C  0.70343234  0.84545964  0.47852765    -0.06300
C975        C  0.63989873  0.85471798  0.52675232    -0.05600
C976        C  0.63463253  0.78684548  0.53782848    -0.06400
C977        C  0.70323753  0.84951143  0.53195399    -0.06300
C978        C  0.62141139  0.87818345  0.54021022    -0.31700
N979        N  0.60895218  0.88903386  0.49690016     0.14800
C980        C  0.61884939  0.87230758  0.45581432    -0.31700
H981        H  0.61137576  0.87508439  0.41621741     0.16800
C982        C  0.61939385  0.74739520  0.56105219    -0.30600
N983        N  0.60839146  0.71760194  0.52411630     0.13600
C984        C  0.61907262  0.73778182  0.47767238    -0.30600
C985        C  0.74507448  0.86811472  0.54957408    -0.30900
N986        N  0.77137438  0.87778728  0.50896042     0.14100
H987        H  0.75611987  0.87507569  0.58896173     0.16700
C988        C  0.74675023  0.86309485  0.46548430    -0.30900
H989        H  0.75959724  0.86650763  0.42711924     0.16700
H990        H  0.61727848  0.72183634  0.44187914     0.16700
H991        H  0.61656838  0.88618043  0.57871636     0.16800
H992        H  0.61774514  0.74082568  0.60178450     0.16700
O993        O  0.55424821  0.98032858  0.03554132    -0.87800
C994        C  0.56877176  0.56269136  0.91775747     0.88300
Mg995      Mg  0.50379538  0.91375518  0.03490935     1.58100
O996        O  0.52189488  0.57419741  0.03199363    -0.87500
O997        O  0.57871958  0.53727432  0.08328657    -0.74800
C998        C  0.82313621  0.91176976  0.99276735     0.93300
O999        O  0.53320802  0.95619539  0.91493328    -0.74600
O1000       O  0.84077249  0.89004202  0.98158197    -0.82100
Mg1001     Mg  0.59124308  0.50287696  0.96482065     1.58000
C1002       C  0.91070735  0.58626368  0.00877721     0.93200
O1003       O  0.65715801  0.55136153  0.99803178    -0.80400
H1004       H  0.52775603  0.59194730  0.10556516    -0.05700
C1005       C  0.93289372  0.00136704  0.92130969     0.88200
O1006       O  0.96050981  0.92634252  0.08811646    -0.74900
O1007       O  0.57415749  0.55206144  0.96080861    -0.87700
O1008       O  0.94939374  0.60403802  0.99296553    -0.80500
C1009       C  0.58627419  0.67544717  0.98010624     0.93400
C1010       C  0.67802292  0.59098930  0.00972036     0.93200
Mg1011     Mg  0.91035430  0.99830162  0.03497816     1.58000
O1012       O  0.84480381  0.95161963  0.00219875    -0.80400
O1013       O  0.96764441  0.54497034  0.08461966    -0.74600
O1014       O  0.60585209  0.65580182  0.99286604    -0.80500
O1015       O  0.61038561  0.95200872  0.97479318    -0.82200
O1016       O  0.89236724  0.84615927  0.01228639    -0.80500
C1017       C  0.00683145  0.57177262  0.07506611     0.87600
O1018       O  0.92757419  0.94944684  0.03892903    -0.87700
O1019       O  0.94664532  0.51935916  0.96294509    -0.87800
O1020       O  0.92007075  0.96192971  0.91586056    -0.74800
Mg1021     Mg  0.58877484  0.59182100  0.02939309     1.58000
O1022       O  0.54687662  0.65593311  0.96636305    -0.82200
H1023       H  0.56643631  0.97951175  0.11030414    -0.05900
O1024       O  0.97781100  0.92631739  0.96615342    -0.87500
H1025       H  0.97302254  0.91059860  0.89188894    -0.05700
H1026       H  0.91645999  0.94103002  0.11441651    -0.05900
C1027       C  0.49354323  0.92981658  0.92320418     0.87600
C1028       C  0.56675967  0.49804051  0.07754306     0.88200
C1029       C  0.93367900  0.93884652  0.08168589     0.88300
H1030       H  0.93287376  0.51979575  0.88862154    -0.05900
O1031       O  0.54121996  0.57404074  0.91008513    -0.74900
Mg1032     Mg  0.91066006  0.90868515  0.97136177     1.58000
H1033       H  0.58706996  0.56122430  0.88575243    -0.05900
C1034       C  0.58836297  0.91251944  0.98713565     0.93200
O1035       O  0.95212675  0.84392299  0.02730089    -0.82200
C1036       C  0.91184168  0.82541609  0.01825642     0.93300
O1037       O  0.65938173  0.61164076  0.02177605    -0.82100
Mg1038     Mg  0.99636231  0.58570910  0.96119138     1.58200
O1039       O  0.54837583  0.89419207  0.99769917    -0.80500
O1040       O  0.89067255  0.54816030  0.02605002    -0.82200
O1041       O  0.51986928  0.95142556  0.45500446    -0.87800
C1042       C  0.93088597  0.92123384  0.57099158     0.88300
Mg1043     Mg  0.58751749  0.00018297  0.46096672     1.58100
O1044       O  0.92148714  0.97773438  0.46485069    -0.87500
O1045       O  0.96293889  0.92840395  0.40616922    -0.74800
C1046       C  0.58735952  0.67208322  0.53217801     0.93300
O1047       O  0.53763087  0.95681107  0.57730076    -0.74600
O1048       O  0.61008066  0.65456679  0.53722095    -0.82100
Mg1049     Mg  0.99384604  0.90614511  0.51788158     1.58000
C1050       C  0.90799350  0.58402216  0.50527036     0.93200
O1051       O  0.95051988  0.84799747  0.46776794    -0.80400
H1052       H  0.91124151  0.98343795  0.39052243    -0.05700
C1053       C  0.49176752  0.55328572  0.58904217     0.88200
O1054       O  0.57681166  0.54907292  0.41703602    -0.74900
O1055       O  0.94401633  0.92205252  0.52717257    -0.87700
O1056       O  0.88857277  0.54351614  0.51121627    -0.80500
C1057       C  0.81751387  0.90382100  0.51157850     0.93400
C1058       C  0.90960183  0.82496911  0.47011461     0.93200
Mg1059     Mg  0.50070603  0.58991154  0.48353533     1.58000
O1060       O  0.54615867  0.64987740  0.53173943    -0.80400
O1061       O  0.95643921  0.53893995  0.42433981    -0.74600
O1062       O  0.83971024  0.88813509  0.49526984    -0.80500
O1063       O  0.54473333  0.88858391  0.50556792    -0.82200
O1064       O  0.65629178  0.60541790  0.50659949    -0.80500
C1065       C  0.92853171  0.49912284  0.42531860     0.87600
O1066       O  0.55107574  0.57421861  0.47358732    -0.87700
O1067       O  0.97456404  0.54432702  0.54627987    -0.87800
O1068       O  0.53193823  0.56736794  0.59442238    -0.74800
Mg1069     Mg  0.90514916  0.91138968  0.45939346     1.58000
O1070       O  0.83503652  0.94221727  0.52843382    -0.82200
H1071       H  0.52285354  0.94711910  0.37875544    -0.05900
O1072       O  0.57297292  0.51753312  0.53584042    -0.87500
H1073       H  0.58317283  0.51250057  0.61036202    -0.05700
H1074       H  0.56253429  0.59542610  0.40114730    -0.05900
C1075       C  0.56582487  0.49650805  0.57571503     0.87600
C1076       C  0.00303532  0.94250656  0.41204532     0.88200
C1077       C  0.56361697  0.57423517  0.42962820     0.88300
H1078       H  0.97226412  0.54888849  0.62258003    -0.05900
O1079       O  0.91723138  0.94594539  0.58379252    -0.74900
Mg1080     Mg  0.59004808  0.58395722  0.54152028     1.58000
H1081       H  0.93188268  0.89978231  0.59914671    -0.05900
C1082       C  0.58498090  0.91045044  0.49674512     0.93200
O1083       O  0.65908460  0.55124118  0.47039650    -0.82200
C1084       C  0.67763551  0.58920440  0.48853802     0.93300
O1085       O  0.88590349  0.84134062  0.46521389    -0.82100
Mg1086     Mg  0.90649127  0.49458057  0.53954076     1.58200
O1087       O  0.60475080  0.95079821  0.48936174    -0.80500
O1088       O  0.94848473  0.60652868  0.49727406    -0.82200
C1089       C  0.70014860  0.88300796  0.68970209    -0.04900
C1090       C  0.66922967  0.85034739  0.72146844     0.09300
C1091       C  0.62984020  0.81805742  0.70034508    -0.02300
C1092       C  0.62427510  0.81504238  0.64685530    -0.00500
C1093       C  0.65955258  0.84205918  0.61480101    -0.04100
C1094       C  0.69282571  0.88080338  0.63668935     0.02900
C1095       C  0.67662022  0.85060530  0.77731622     0.09700
C1096       C  0.59523266  0.78804928  0.73364374     0.35600
C1097       C  0.71670357  0.91950716  0.60608114     0.39000
C1098       C  0.67730546  0.88248823  0.80869108    -0.04500
C1099       C  0.68176122  0.88038346  0.86169073     0.02700
C1100       C  0.67430133  0.84144820  0.88422489    -0.04100
C1101       C  0.68281516  0.81450835  0.85295421    -0.00300
C1102       C  0.68324064  0.81876826  0.79922384    -0.02900
C1103       C  0.67263376  0.91690494  0.78711551     0.36400
C1104       C  0.69655411  0.78660168  0.87518317     0.40000
C1105       C  0.69938841  0.91975728  0.89135949     0.39100
C1106       C  0.69107797  0.79105852  0.76641135     0.36000
C1107       C  0.73970079  0.91823833  0.71100520     0.36700
C1108       C  0.58123870  0.78839258  0.62574231     0.40000
N1109       N  0.71385003  0.95118047  0.91494994    -0.38100
N1110       N  0.66883116  0.94438217  0.77015521    -0.39700
N1111       N  0.70790327  0.76448194  0.89247379    -0.37400
N1112       N  0.69761078  0.76923033  0.74013229    -0.39800
N1113       N  0.56779043  0.76406598  0.76031166    -0.39600
N1114       N  0.54671903  0.76749732  0.60919851    -0.37200
N1115       N  0.73565122  0.95047493  0.58189216    -0.38300
N1116       N  0.77122591  0.94641749  0.72788751    -0.39900
C1117       C  0.62596372  0.78655702  0.30746384    -0.04900
C1118       C  0.65799814  0.82185709  0.27925012     0.09300
C1119       C  0.68711944  0.85905362  0.30706297    -0.02300
C1120       C  0.68590425  0.86004034  0.36179972    -0.00500
C1121       C  0.65697248  0.82285968  0.39095767    -0.04100
C1122       C  0.62374566  0.78816235  0.36204466     0.02900
C1123       C  0.65823764  0.82153250  0.22030433     0.09700
C1124       C  0.71726816  0.89735297  0.27899643     0.35600
C1125       C  0.58315502  0.75801021  0.38609737     0.39000
C1126       C  0.62565662  0.82333150  0.19176889    -0.04500
C1127       C  0.62474492  0.82114485  0.13716773     0.02700
C1128       C  0.66018689  0.82440785  0.10883457    -0.04100
C1129       C  0.68938779  0.81657302  0.13767137    -0.00300
C1130       C  0.68902733  0.81626615  0.19257277    -0.02900
C1131       C  0.59221605  0.82662149  0.21873259     0.36400
C1132       C  0.71651333  0.80366552  0.11156114     0.40000
C1133       C  0.58397621  0.80770564  0.11165297     0.39100
C1134       C  0.71943753  0.80878848  0.22075409     0.36000
C1135       C  0.59380109  0.74882025  0.27997606     0.36700
C1136       C  0.71122718  0.90114344  0.38726316     0.40000
N1137       N  0.55105796  0.79622779  0.09168844    -0.38100
N1138       N  0.56561219  0.82931706  0.24035867    -0.39700
N1139       N  0.73799702  0.79289019  0.09115559    -0.37400
N1140       N  0.74352895  0.80258542  0.24330948    -0.39800
N1141       N  0.74122508  0.92801841  0.25667709    -0.39600
N1142       N  0.73093672  0.93414845  0.40730771    -0.37200
N1143       N  0.55007922  0.73400821  0.40417113    -0.38300
N1144       N  0.56798763  0.71879869  0.25808205    -0.39900
C1145       C  0.80648569  0.63756992  0.69364226    -0.04900
C1146       C  0.83584836  0.67487000  0.72106234     0.09300
C1147       C  0.86772397  0.71016106  0.69288241    -0.02300
C1148       C  0.87060968  0.70793446  0.63871535    -0.00500
C1149       C  0.83729414  0.67333231  0.60999020    -0.04100
C1150       C  0.80786986  0.63630978  0.63902218     0.02900
C1151       C  0.83671194  0.67540680  0.77964634     0.09700
C1152       C  0.89868382  0.74875369  0.72001095     0.35600
C1153       C  0.78235138  0.59513491  0.61376194     0.39000
C1154       C  0.87032160  0.67431933  0.80664983    -0.04500
C1155       C  0.87320129  0.67803391  0.86095955     0.02700
C1156       C  0.83865926  0.67541303  0.89048839    -0.04100
C1157       C  0.80873405  0.68295262  0.86301735    -0.00300
C1158       C  0.80698409  0.68158988  0.80831353    -0.02900
C1159       C  0.90289243  0.67048292  0.77832081     0.36400
C1160       C  0.78355269  0.69774752  0.89005714     0.40000
C1161       C  0.91497916  0.69264922  0.88456786     0.39100
C1162       C  0.77558769  0.68833104  0.78132300     0.36000
C1163       C  0.77553447  0.59976085  0.72190483     0.36700
C1164       C  0.91199188  0.73676061  0.61527682     0.40000
N1165       N  0.94875924  0.70515022  0.90271997    -0.38100
N1166       N  0.92877000  0.66737916  0.75554126    -0.39700
N1167       N  0.76377221  0.71015336  0.91126290    -0.37400
N1168       N  0.75061558  0.69387834  0.75982137    -0.39800
N1169       N  0.92320362  0.77954218  0.74176843    -0.39600
N1170       N  0.94565550  0.75947954  0.59763181    -0.38200
N1171       N  0.76236627  0.56204181  0.59398019    -0.38300
N1172       N  0.75076389  0.56956241  0.74435309    -0.39900
C1173       C  0.80818458  0.62557236  0.19494462    -0.04900
C1174       C  0.84050525  0.66134151  0.22158327     0.09300
C1175       C  0.87560978  0.69462771  0.19491093    -0.02300
C1176       C  0.87667852  0.69288251  0.14148299    -0.00500
C1177       C  0.83904383  0.66297217  0.11439564    -0.04100
C1178       C  0.80880986  0.62534674  0.14115795     0.02900
C1179       C  0.83960021  0.66244351  0.27797666     0.09700
C1180       C  0.91075802  0.73042081  0.22216820     0.35600
C1181       C  0.78312055  0.58476764  0.11462449     0.39000
C1182       C  0.87053962  0.65831058  0.30645098    -0.04500
C1183       C  0.87335068  0.66514935  0.35940779     0.02700
C1184       C  0.83922152  0.66602343  0.38554286    -0.04100
C1185       C  0.81199941  0.67598267  0.35611682    -0.00300
C1186       C  0.81131112  0.67277727  0.30246905    -0.02900
C1187       C  0.90042157  0.64848862  0.28102129     0.36400
C1188       C  0.78878697  0.69467676  0.37973052     0.40000
C1189       C  0.91476293  0.67938062  0.38400347     0.39100
C1190       C  0.78225320  0.68108347  0.27233586     0.36000
C1191       C  0.77487818  0.58891402  0.22285883     0.36700
C1192       C  0.91809194  0.71700220  0.11572616     0.40000
N1193       N  0.94805563  0.69098638  0.40304575    -0.38100
N1194       N  0.92406378  0.64060752  0.26047934    -0.39700
N1195       N  0.77055663  0.70992294  0.39836575    -0.37400
N1196       N  0.75897989  0.68757410  0.24841431    -0.39800
N1197       N  0.93883874  0.75893459  0.24379717    -0.39600
N1198       N  0.95114395  0.73550342  0.09516619    -0.37200
N1199       N  0.76303959  0.55216280  0.09382335    -0.38300
N1200       N  0.74818672  0.55976209  0.24507227    -0.39900
loop_ 
_geom_bond_atom_site_label_1 
_geom_bond_atom_site_label_2 
_geom_bond_distance 
_geom_bond_site_symmetry_2 
_ccdc_geom_bond_type 
C1            C3   1.507       .  S
C1            C5   1.523       .  S
C1            C4   1.525       .  S
C1          C277   1.522       .  S
C2            C6   1.566       .  S
C2            C8   1.555       .  S
C2            C7   1.568       .  S
C2          C256   1.573       .  S
C3           C11   1.367       .  A
C3            C6   1.392   1_554  A
C4           C15   1.373       .  A
C4            C7   1.401   1_554  A
C5           C19   1.373       .  A
C5            C8   1.395   1_554  A
C6            C9   1.393       .  A
C7           C13   1.388       .  A
C8           C16   1.385       .  A
C9           N10   1.364   1_556  A
C9           H22   1.082       .  S
N10          C11   1.339       .  A
N10         C102   1.424       .  S
C11          H12   1.083       .  S
C13          N14   1.363   1_556  A
C13          H23   1.082       .  S
N14          C15   1.344       .  A
N14         C110   1.426       .  S
C15          H21   1.082       .  S
C16          N17   1.364   1_556  A
C16          H18   1.082       .  S
N17          C19   1.344       .  A
N17         C136   1.425       .  S
C19          H20   1.082       .  S
C24          C26   1.522       .  S
C24          C28   1.530       .  S
C24          C27   1.517       .  S
C24         C284   1.527       .  S
C25          C29   1.558       .  S
C25          C31   1.568       .  S
C25          C30   1.568       .  S
C25         C249   1.574       .  S
C26          C34   1.371       .  A
C26          C29   1.394       .  A
C27          C38   1.373       .  A
C27          C30   1.393       .  A
C28          C42   1.377       .  A
C28          C31   1.398       .  A
C29          C32   1.388       .  A
C30          C36   1.395       .  A
C31          C39   1.391       .  A
C32          N33   1.364       .  A
C32          H45   1.082       .  S
N33          C34   1.343       .  A
N33         C150   1.427       .  S
C34          H35   1.082       .  S
C36          N37   1.365       .  A
C36          H46   1.082       .  S
N37          C38   1.342       .  A
N37         C158   1.430       .  S
C38          H44   1.083       .  S
C39          N40   1.366       .  A
C39          H41   1.082       .  S
N40          C42   1.347       .  A
N40         C184   1.435       .  S
C42          H43   1.083       .  S
C47          C49   1.573       .  S
C47          C51   1.558       .  S
C47          C50   1.561       .  S
C47         C228   1.583       .  S
C48          C52   1.528       .  S
C48          C54   1.523       .  S
C48          C53   1.509       .  S
C48         C200   1.531       .  S
C49          C57   1.393       .  A
C49          C52   1.400   1_554  A
C50          C61   1.390       .  A
C50          C53   1.394   1_554  A
C51          C65   1.381       .  A
C51          C54   1.401   1_554  A
C52          C55   1.375       .  A
C53          C59   1.365       .  A
C54          C62   1.374       .  A
C55          N56   1.341       .  A
C55          H68   1.082       .  S
N56          C57   1.364   1_556  A
N56         C134   1.429       .  S
C57          H58   1.082       .  S
C59          N60   1.339       .  A
C59          H69   1.083       .  S
N60          C61   1.364   1_556  A
N60          C98   1.421       .  S
C61          H67   1.082       .  S
C62          N63   1.346       .  A
C62          H64   1.082       .  S
N63          C65   1.363   1_556  A
N63         C109   1.425       .  S
C65          H66   1.083       .  S
C70          C72   1.552       .  S
C70          C74   1.568       .  S
C70          C73   1.577       .  S
C70         C221   1.583       .  S
C71          C75   1.503       .  S
C71          C77   1.530       .  S
C71          C76   1.534       .  S
C71         C193   1.530       .  S
C72          C80   1.388       .  A
C72          C75   1.387       .  A
C73          C84   1.394       .  A
C73          C76   1.408       .  A
C74          C88   1.392       .  A
C74          C77   1.400       .  A
C75          C78   1.365       .  A
C76          C82   1.381       .  A
C77          C85   1.375       .  A
C78          N79   1.342       .  A
C78          H91   1.083       .  S
N79          C80   1.364       .  A
N79         C182   1.422       .  S
C80          H81   1.082       .  S
C82          N83   1.346       .  A
C82          H92   1.082       .  S
N83          C84   1.363       .  A
N83         C146   1.436       .  S
C84          H90   1.082       .  S
C85          N86   1.343       .  A
C85          H87   1.082       .  S
N86          C88   1.366       .  A
N86         C157   1.432       .  S
C88          H89   1.082       .  S
O93         Mg95   2.156       .  S
O93        Mg401   2.175   1_554  S
O93         C428   1.231       .  S
C94         H133   1.081       .  S
C94         O107   1.231       .  S
C94         O131   1.266       .  A
Mg95        O724   2.169   1_454  S
Mg95        O139   2.275   1_554  S
Mg95        O735   2.258   1_455  S
Mg95        O706   2.299   1_455  S
O96        Mg121   2.152       .  S
O96        Mg738   2.189   1_454  S
O96         C717   1.230       .  S
O97         C128   1.266   1_545  A
O97        Mg121   2.295       .  S
C98         O100   1.271       .  A
C98         O112   1.267   1_556  A
O99         C127   1.267   1_455  A
O99        Mg401   2.302       .  S
O100       Mg132   2.261       .  S
Mg101       O107   2.161       .  S
Mg101       O393   2.175   1_546  S
Mg101       O103   2.281       .  S
Mg101       O399   2.302   1_545  S
Mg101       O415   2.284   1_545  S
C102        O140   1.270       .  A
C102        O108   1.268   1_554  A
O103        C110   1.272   1_556  A
H104        C717   1.081       .  S
C105        H430   1.081       .  S
C105        O419   1.231       .  S
C105        O120   1.265       .  A
O106        C129   1.267       .  A
O106       Mg695   2.299       .  S
O107       Mg121   2.184   1_556  S
O108       Mg138   2.264       .  S
C109        O122   1.270       .  A
C109        O114   1.272       .  A
C110        O137   1.272       .  A
Mg111       O118   2.153       .  S
Mg111       O419   2.191   1_554  S
Mg111       O112   2.253       .  S
Mg111       O413   2.284       .  S
Mg111       O440   2.260       .  S
O113        C117   1.264       .  A
O113       Mg411   2.284   1_545  S
O114       Mg121   2.279   1_556  S
O115        C134   1.273       .  A
O115       Mg401   2.284       .  S
O116        C136   1.269       .  A
O116       Mg132   2.274   1_554  S
C117        H704   1.081       .  S
C117        O696   1.230       .  S
O118       Mg132   2.175   1_554  S
O118        C129   1.232       .  S
O119       Mg138   2.144       .  S
O119       Mg411   2.191   1_546  S
O119        C405   1.231       .  S
O120       Mg132   2.291       .  S
Mg121       O137   2.268       .  S
O122       Mg738   2.253   1_455  S
H123        C428   1.081       .  S
O124       Mg132   2.164       .  S
O124       Mg695   2.169   1_556  S
O124        C727   1.232       .  S
H125        C727   1.081       .  S
H126        C129   1.081       .  S
C127        H725   1.081       .  S
C127        O724   1.232       .  S
C128        H423   1.081       .  S
C128        O393   1.231       .  S
H130        C405   1.081       .  S
O131       Mg738   2.293   1_455  S
C134        O139   1.270       .  A
O135        C136   1.270       .  A
O135       Mg695   2.258       .  S
Mg138       O696   2.189   1_556  S
Mg138       O722   2.253       .  S
Mg138       O731   2.293       .  S
O140       Mg411   2.260   1_545  S
O141       Mg143   2.164       .  S
O141       Mg749   2.164   1_455  S
O141        C776   1.233       .  S
C142        H181   1.081       .  S
C142        O155   1.231       .  S
C142        O179   1.265       .  A
Mg143       O472   2.194       .  S
Mg143       O187   2.290       .  S
Mg143       O483   2.291       .  S
Mg143       O454   2.296       .  S
O144       Mg169   2.167       .  S
O144       Mg486   2.189       .  S
O144        C465   1.234       .  S
O145        C176   1.269       .  A
O145       Mg169   2.308       .  S
C146        O148   1.270       .  A
C146        O160   1.276       .  A
O147        C475   1.269       .  A
O147       Mg749   2.300   1_455  S
O148       Mg180   2.278       .  S
Mg149       O155   2.156       .  S
Mg149       O741   2.164       .  S
Mg149       O151   2.285       .  S
Mg149       O747   2.300       .  S
Mg149       O763   2.245       .  S
C150        O188   1.273       .  A
C150        O156   1.272       .  A
O151        C158   1.270       .  A
H152        C465   1.081       .  S
C153        H778   1.081       .  S
C153        O767   1.233       .  S
C153        O168   1.270   1_655  A
O154        C177   1.266       .  A
O154       Mg443   2.296       .  S
O155       Mg169   2.158       .  S
O156       Mg186   2.291   1_545  S
C157        O170   1.277       .  A
C157        O162   1.266       .  A
C158        O185   1.267       .  A
Mg159       O166   2.172       .  S
Mg159       O767   2.167   1_455  S
Mg159       O160   2.312       .  S
Mg159       O761   2.306   1_455  S
Mg159       O788   2.273   1_455  S
O161        C165   1.270   1_545  A
O161       Mg759   2.306       .  S
O162       Mg169   2.260       .  S
O163        C182   1.268       .  A
O163       Mg749   2.245   1_455  S
O164        C184   1.271       .  A
O164       Mg180   2.286       .  S
C165        H452   1.081       .  S
C165        O444   1.234       .  S
O166       Mg180   2.168       .  S
O166        C177   1.232       .  S
O167       Mg186   2.185   1_545  S
O167       Mg759   2.167       .  S
O167        C753   1.233       .  S
O168       Mg180   2.315       .  S
Mg169       O185   2.268       .  S
O170       Mg486   2.305       .  S
H171        C776   1.081       .  S
O172       Mg180   2.163       .  S
O172       Mg443   2.194       .  S
O172        C175   1.234   1_545  S
H173        C175   1.081   1_545  S
H174        C177   1.081       .  S
C175        O447   1.269       .  A
C176        H771   1.081       .  S
C176        O741   1.233       .  S
H178        C753   1.081       .  S
O179       Mg486   2.293       .  S
C182        O187   1.272       .  A
O183        C184   1.274       .  A
O183       Mg443   2.291       .  S
Mg186       O444   2.189       .  S
Mg186       O470   2.305       .  S
Mg186       O479   2.293       .  S
O188       Mg759   2.273       .  S
C189        C190   1.408       .  A
C189        C194   1.399       .  A
C189        C207   1.452       .  S
C190        C191   1.409       .  A
C190        C195   1.477       .  S
C191        C192   1.403       .  A
C191        C196   1.452       .  S
C192        C193   1.415       .  A
C192        C208   1.450       .  S
C193        C194   1.419       .  A
C194        C197   1.453       .  S
C195        C198   1.405       .  A
C195        C202   1.409       .  A
C196        N213   1.157       .  T
C197        N215   1.158       .  T
C198        C199   1.395       .  A
C198        C203   1.451       .  S
C199        C200   1.420       .  A
C199        C205   1.453       .  S
C200        C201   1.420       .  A
C201        C202   1.407       .  A
C201        C204   1.450       .  S
C202        C206   1.452       .  S
C203        N210   1.157       .  T
C204        N211   1.158       .  T
C205        N209   1.158       .  T
C206        N212   1.157       .  T
C207        N216   1.157       .  T
C208        N214   1.157       .  T
C217        C218   1.415       .  A
C217        C222   1.427       .  A
C217        C235   1.451       .  S
C218        C219   1.413       .  A
C218        C223   1.535       .  S
C219        C220   1.427       .  A
C219        C224   1.450       .  S
C220        C221   1.430       .  A
C220        C236   1.450       .  S
C221        C222   1.429       .  A
C222        C225   1.447       .  S
C223        C226   1.414       .  A
C223        C230   1.415       .  A
C224        N241   1.157       .  T
C225        N243   1.158       .  T
C226        C227   1.424       .  A
C226        C231   1.450       .  S
C227        C228   1.426       .  A
C227        C233   1.447       .  S
C228        C229   1.429       .  A
C229        C230   1.430       .  A
C229        C232   1.449       .  S
C230        C234   1.450       .  S
C231        N238   1.157       .  T
C232        N239   1.158       .  T
C233        N237   1.157       .  T
C234        N240   1.157       .  T
C235        N244   1.157       .  T
C236        N242   1.158       .  T
C245        C246   1.412       .  A
C245        C250   1.425       .  A
C245        C263   1.450       .  S
C246        C247   1.412       .  A
C246        C251   1.526       .  S
C247        C248   1.420       .  A
C247        C252   1.451       .  S
C248        C249   1.426       .  A
C248        C264   1.448       .  S
C249        C250   1.430       .  A
C250        C253   1.450       .  S
C251        C254   1.414       .  A
C251        C258   1.413       .  A
C252        N269   1.157       .  T
C253        N271   1.158       .  T
C254        C255   1.419       .  A
C254        C259   1.451       .  S
C255        C256   1.424       .  A
C255        C261   1.449       .  S
C256        C257   1.427       .  A
C257        C258   1.426       .  A
C257        C260   1.449       .  S
C258        C262   1.450       .  S
C259        N266   1.157       .  T
C260        N267   1.158       .  T
C261        N265   1.158       .  T
C262        N268   1.157       .  T
C263        N272   1.157       .  T
C264        N270   1.158       .  T
C273        C274   1.405       .  A
C273        C278   1.401       .  A
C273        C291   1.452       .  S
C274        C275   1.407       .  A
C274        C279   1.470       .  S
C275        C276   1.395       .  A
C275        C280   1.453       .  S
C276        C277   1.416       .  A
C276        C292   1.452       .  S
C277        C278   1.420       .  A
C278        C281   1.451       .  S
C279        C282   1.405       .  A
C279        C286   1.404       .  A
C280        N297   1.157       .  T
C281        N299   1.158       .  T
C282        C283   1.396       .  A
C282        C287   1.453       .  S
C283        C284   1.419       .  A
C283        C289   1.451       .  S
C284        C285   1.424       .  A
C285        C286   1.401       .  A
C285        C288   1.453       .  S
C286        C290   1.453       .  S
C287        N294   1.157       .  T
C288        N295   1.158       .  T
C289        N293   1.157       .  T
C290        N296   1.157       .  T
C291        N300   1.157       .  T
C292        N298   1.157       .  T
C301        C303   1.507       .  S
C301        C305   1.523       .  S
C301        C304   1.525       .  S
C301        C577   1.522       .  S
C302        C306   1.566       .  S
C302        C308   1.555       .  S
C302        C307   1.568       .  S
C302        C556   1.573       .  S
C303        C311   1.367       .  A
C303        C306   1.392   1_554  A
C304        C315   1.373       .  A
C304        C307   1.401   1_554  A
C305        C319   1.373       .  A
C305        C308   1.395   1_554  A
C306        C309   1.393       .  A
C307        C313   1.388       .  A
C308        C316   1.385       .  A
C309        N310   1.364   1_556  A
C309        H322   1.082       .  S
N310        C311   1.339       .  A
N310        C402   1.424       .  S
C311        H312   1.083       .  S
C313        N314   1.363   1_556  A
C313        H323   1.082       .  S
N314        C315   1.344       .  A
N314        C410   1.426       .  S
C315        H321   1.082       .  S
C316        N317   1.364   1_556  A
C316        H318   1.082       .  S
N317        C319   1.344       .  A
N317        C436   1.425       .  S
C319        H320   1.082       .  S
C324        C326   1.522       .  S
C324        C328   1.530       .  S
C324        C327   1.517       .  S
C324        C584   1.527       .  S
C325        C329   1.558       .  S
C325        C331   1.568       .  S
C325        C330   1.568       .  S
C325        C549   1.574       .  S
C326        C334   1.371       .  A
C326        C329   1.394       .  A
C327        C338   1.373       .  A
C327        C330   1.393       .  A
C328        C342   1.377       .  A
C328        C331   1.398       .  A
C329        C332   1.388       .  A
C330        C336   1.395       .  A
C331        C339   1.391       .  A
C332        N333   1.364       .  A
C332        H345   1.082       .  S
N333        C334   1.343       .  A
N333        C450   1.427       .  S
C334        H335   1.082       .  S
C336        N337   1.365       .  A
C336        H346   1.082       .  S
N337        C338   1.342       .  A
N337        C458   1.430       .  S
C338        H344   1.083       .  S
C339        N340   1.366       .  A
C339        H341   1.082       .  S
N340        C342   1.347       .  A
N340        C484   1.435       .  S
C342        H343   1.083       .  S
C347        C349   1.573       .  S
C347        C351   1.558       .  S
C347        C350   1.561       .  S
C347        C528   1.583       .  S
C348        C352   1.528       .  S
C348        C354   1.523       .  S
C348        C353   1.509       .  S
C348        C500   1.531       .  S
C349        C357   1.393       .  A
C349        C352   1.400   1_554  A
C350        C361   1.390       .  A
C350        C353   1.394   1_554  A
C351        C365   1.381       .  A
C351        C354   1.401   1_554  A
C352        C355   1.375       .  A
C353        C359   1.365       .  A
C354        C362   1.374       .  A
C355        N356   1.341       .  A
C355        H368   1.082       .  S
N356        C357   1.364   1_556  A
N356        C434   1.429       .  S
C357        H358   1.082       .  S
C359        N360   1.339       .  A
C359        H369   1.083       .  S
N360        C361   1.364   1_556  A
N360        C398   1.421       .  S
C361        H367   1.082       .  S
C362        N363   1.346       .  A
C362        H364   1.082       .  S
N363        C365   1.363   1_556  A
N363        C409   1.425       .  S
C365        H366   1.083       .  S
C370        C372   1.552       .  S
C370        C374   1.568       .  S
C370        C373   1.577       .  S
C370        C521   1.583       .  S
C371        C375   1.503       .  S
C371        C377   1.530       .  S
C371        C376   1.534       .  S
C371        C493   1.530       .  S
C372        C380   1.388       .  A
C372        C375   1.387       .  A
C373        C384   1.394       .  A
C373        C376   1.408       .  A
C374        C388   1.392       .  A
C374        C377   1.400       .  A
C375        C378   1.365       .  A
C376        C382   1.381       .  A
C377        C385   1.375       .  A
C378        N379   1.342       .  A
C378        H391   1.083       .  S
N379        C380   1.364       .  A
N379        C482   1.422       .  S
C380        H381   1.082       .  S
C382        N383   1.346       .  A
C382        H392   1.082       .  S
N383        C384   1.363       .  A
N383        C446   1.436       .  S
C384        H390   1.082       .  S
C385        N386   1.343       .  A
C385        H387   1.082       .  S
N386        C388   1.366       .  A
N386        C457   1.432       .  S
C388        H389   1.082       .  S
O393       Mg395   2.156       .  S
C394        H433   1.081       .  S
C394        O407   1.231       .  S
C394        O431   1.266       .  A
Mg395      O1024   2.169   1_454  S
Mg395       O439   2.275   1_554  S
Mg395      O1035   2.258   1_455  S
Mg395      O1006   2.299   1_455  S
O396      Mg1038   2.189   1_454  S
O396       Mg421   2.152       .  S
O396       C1017   1.230       .  S
O397        C428   1.266       .  A
O397       Mg421   2.295       .  S
C398        O400   1.271       .  A
C398        O412   1.267   1_556  A
O399        C427   1.267   1_455  A
O400       Mg432   2.261       .  S
Mg401       O407   2.161       .  S
Mg401       O403   2.281       .  S
C402        O440   1.270       .  A
C402        O408   1.268   1_554  A
O403        C410   1.272   1_556  A
H404       C1017   1.081       .  S
C405        O420   1.265   1_545  A
O406        C429   1.267       .  A
O406       Mg995   2.299       .  S
O407       Mg421   2.184   1_556  S
O408       Mg438   2.264       .  S
C409        O422   1.270       .  A
C409        O414   1.272       .  A
C410        O437   1.272       .  A
Mg411       O418   2.153       .  S
Mg411       O412   2.253       .  S
O413        C417   1.264       .  A
O414       Mg421   2.279   1_556  S
O415        C434   1.273       .  A
O416        C436   1.269       .  A
O416       Mg432   2.274   1_554  S
C417       H1004   1.081       .  S
C417        O996   1.230       .  S
O418       Mg432   2.175   1_554  S
O418        C429   1.232       .  S
O419       Mg438   2.144       .  S
O420       Mg432   2.291       .  S
Mg421       O437   2.268       .  S
O422      Mg1038   2.253   1_455  S
O424       Mg995   2.169   1_556  S
O424       Mg432   2.164       .  S
O424       C1027   1.232       .  S
H425       C1027   1.081       .  S
H426        C429   1.081       .  S
C427       H1025   1.081       .  S
C427       O1024   1.232       .  S
O431      Mg1038   2.293   1_455  S
C434        O439   1.270       .  A
O435        C436   1.270       .  A
O435       Mg995   2.258       .  S
Mg438       O996   2.189   1_556  S
Mg438      O1022   2.253       .  S
Mg438      O1031   2.293       .  S
O441       Mg443   2.164   1_565  S
O441      Mg1049   2.164   1_455  S
O441       C1076   1.233       .  S
C442        H481   1.081       .  S
C442        O455   1.231       .  S
C442        O479   1.265       .  A
Mg443       O487   2.290   1_545  S
O444       Mg469   2.167       .  S
O445        C476   1.269       .  A
O445       Mg469   2.308       .  S
C446        O448   1.270       .  A
C446        O460   1.276       .  A
O447      Mg1049   2.300   1_455  S
O448       Mg480   2.278       .  S
Mg449      O1041   2.164       .  S
Mg449       O455   2.156       .  S
Mg449      O1047   2.300       .  S
Mg449      O1063   2.245       .  S
Mg449       O451   2.285       .  S
C450        O488   1.273       .  A
C450        O456   1.272       .  A
O451        C458   1.270       .  A
C453       H1078   1.081       .  S
C453       O1067   1.233       .  S
C453        O468   1.270   1_655  A
O454        C477   1.266       .  A
O455       Mg469   2.158       .  S
O456       Mg486   2.291       .  S
C457        O470   1.277       .  A
C457        O462   1.266       .  A
C458        O485   1.267       .  A
Mg459       O466   2.172       .  S
Mg459      O1067   2.167   1_455  S
Mg459       O460   2.312       .  S
Mg459      O1061   2.306   1_455  S
Mg459      O1088   2.273   1_455  S
O461        C465   1.270       .  A
O461      Mg1059   2.306       .  S
O462       Mg469   2.260       .  S
O463        C482   1.268       .  A
O463      Mg1049   2.245   1_455  S
O464        C484   1.271       .  A
O464       Mg480   2.286       .  S
O466       Mg480   2.168       .  S
O466        C477   1.232       .  S
O467      Mg1059   2.167       .  S
O467       Mg486   2.185       .  S
O467       C1053   1.233       .  S
O468       Mg480   2.315       .  S
Mg469       O485   2.268       .  S
H471       C1076   1.081       .  S
O472       Mg480   2.163       .  S
O472        C475   1.234       .  S
H473        C475   1.081       .  S
H474        C477   1.081       .  S
C476       H1071   1.081       .  S
C476       O1041   1.233       .  S
H478       C1053   1.081       .  S
C482        O487   1.272       .  A
O483        C484   1.274       .  A
O488      Mg1059   2.273       .  S
C489        C490   1.408       .  A
C489        C494   1.399       .  A
C489        C507   1.452       .  S
C490        C491   1.409       .  A
C490        C495   1.477       .  S
C491        C492   1.403       .  A
C491        C496   1.452       .  S
C492        C493   1.415       .  A
C492        C508   1.450       .  S
C493        C494   1.419       .  A
C494        C497   1.453       .  S
C495        C498   1.405       .  A
C495        C502   1.409       .  A
C496        N513   1.157       .  T
C497        N515   1.158       .  T
C498        C499   1.395       .  A
C498        C503   1.451       .  S
C499        C500   1.420       .  A
C499        C505   1.453       .  S
C500        C501   1.420       .  A
C501        C502   1.407       .  A
C501        C504   1.450       .  S
C502        C506   1.452       .  S
C503        N510   1.157       .  T
C504        N511   1.158       .  T
C505        N509   1.158       .  T
C506        N512   1.157       .  T
C507        N516   1.157       .  T
C508        N514   1.157       .  T
C517        C518   1.415       .  A
C517        C522   1.427       .  A
C517        C535   1.451       .  S
C518        C519   1.413       .  A
C518        C523   1.535       .  S
C519        C520   1.427       .  A
C519        C524   1.450       .  S
C520        C521   1.430       .  A
C520        C536   1.450       .  S
C521        C522   1.429       .  A
C522        C525   1.447       .  S
C523        C526   1.414       .  A
C523        C530   1.415       .  A
C524        N541   1.157       .  T
C525        N543   1.158       .  T
C526        C527   1.424       .  A
C526        C531   1.450       .  S
C527        C528   1.426       .  A
C527        C533   1.447       .  S
C528        C529   1.429       .  A
C529        C530   1.430       .  A
C529        C532   1.449       .  S
C530        C534   1.450       .  S
C531        N538   1.157       .  T
C532        N539   1.158       .  T
C533        N537   1.157       .  T
C534        N540   1.157       .  T
C535        N544   1.157       .  T
C536        N542   1.158       .  T
C545        C546   1.412       .  A
C545        C550   1.425       .  A
C545        C563   1.450       .  S
C546        C547   1.412       .  A
C546        C551   1.526       .  S
C547        C548   1.420       .  A
C547        C552   1.451       .  S
C548        C549   1.426       .  A
C548        C564   1.448       .  S
C549        C550   1.430       .  A
C550        C553   1.450       .  S
C551        C554   1.414       .  A
C551        C558   1.413       .  A
C552        N569   1.157       .  T
C553        N571   1.158       .  T
C554        C555   1.419       .  A
C554        C559   1.451       .  S
C555        C556   1.424       .  A
C555        C561   1.449       .  S
C556        C557   1.427       .  A
C557        C558   1.426       .  A
C557        C560   1.449       .  S
C558        C562   1.450       .  S
C559        N566   1.157       .  T
C560        N567   1.158       .  T
C561        N565   1.158       .  T
C562        N568   1.157       .  T
C563        N572   1.157       .  T
C564        N570   1.158       .  T
C573        C574   1.405       .  A
C573        C578   1.401       .  A
C573        C591   1.452       .  S
C574        C575   1.407       .  A
C574        C579   1.470       .  S
C575        C576   1.395       .  A
C575        C580   1.453       .  S
C576        C577   1.416       .  A
C576        C592   1.452       .  S
C577        C578   1.420       .  A
C578        C581   1.451       .  S
C579        C582   1.405       .  A
C579        C586   1.404       .  A
C580        N597   1.157       .  T
C581        N599   1.158       .  T
C582        C583   1.396       .  A
C582        C587   1.453       .  S
C583        C584   1.419       .  A
C583        C589   1.451       .  S
C584        C585   1.424       .  A
C585        C586   1.401       .  A
C585        C588   1.453       .  S
C586        C590   1.453       .  S
C587        N594   1.157       .  T
C588        N595   1.158       .  T
C589        N593   1.157       .  T
C590        N596   1.157       .  T
C591        N600   1.157       .  T
C592        N598   1.157       .  T
C601        C603   1.507       .  S
C601        C605   1.523       .  S
C601        C604   1.525       .  S
C601        C877   1.522       .  S
C602        C606   1.566       .  S
C602        C608   1.555       .  S
C602        C607   1.568       .  S
C602        C856   1.573       .  S
C603        C611   1.367       .  A
C603        C606   1.392   1_554  A
C604        C615   1.373       .  A
C604        C607   1.401   1_554  A
C605        C619   1.373       .  A
C605        C608   1.395   1_554  A
C606        C609   1.393       .  A
C607        C613   1.388       .  A
C608        C616   1.385       .  A
C609        N610   1.364   1_556  A
C609        H622   1.082       .  S
N610        C611   1.339       .  A
N610        C702   1.424       .  S
C611        H612   1.083       .  S
C613        N614   1.363   1_556  A
C613        H623   1.082       .  S
N614        C615   1.344       .  A
N614        C710   1.426       .  S
C615        H621   1.082       .  S
C616        N617   1.364   1_556  A
C616        H618   1.082       .  S
N617        C619   1.344       .  A
N617        C736   1.425       .  S
C619        H620   1.082       .  S
C624        C626   1.522       .  S
C624        C628   1.530       .  S
C624        C627   1.517       .  S
C624        C884   1.527       .  S
C625        C629   1.558       .  S
C625        C631   1.568       .  S
C625        C630   1.568       .  S
C625        C849   1.574       .  S
C626        C634   1.371       .  A
C626        C629   1.394       .  A
C627        C638   1.373       .  A
C627        C630   1.393       .  A
C628        C642   1.377       .  A
C628        C631   1.398       .  A
C629        C632   1.388       .  A
C630        C636   1.395       .  A
C631        C639   1.391       .  A
C632        N633   1.364       .  A
C632        H645   1.082       .  S
N633        C634   1.343       .  A
N633        C750   1.427       .  S
C634        H635   1.082       .  S
C636        N637   1.365       .  A
C636        H646   1.082       .  S
N637        C638   1.342       .  A
N637        C758   1.430       .  S
C638        H644   1.083       .  S
C639        N640   1.366       .  A
C639        H641   1.082       .  S
N640        C642   1.347       .  A
N640        C784   1.435       .  S
C642        H643   1.083       .  S
C647        C649   1.573       .  S
C647        C651   1.558       .  S
C647        C650   1.561       .  S
C647        C828   1.583       .  S
C648        C652   1.528       .  S
C648        C654   1.523       .  S
C648        C653   1.509       .  S
C648        C800   1.531       .  S
C649        C657   1.393       .  A
C649        C652   1.400   1_554  A
C650        C661   1.390       .  A
C650        C653   1.394   1_554  A
C651        C665   1.381       .  A
C651        C654   1.401   1_554  A
C652        C655   1.375       .  A
C653        C659   1.365       .  A
C654        C662   1.374       .  A
C655        N656   1.341       .  A
C655        H668   1.082       .  S
N656        C657   1.364   1_556  A
N656        C734   1.429       .  S
C657        H658   1.082       .  S
C659        N660   1.339       .  A
C659        H669   1.083       .  S
N660        C661   1.364   1_556  A
N660        C698   1.421       .  S
C661        H667   1.082       .  S
C662        N663   1.346       .  A
C662        H664   1.082       .  S
N663        C665   1.363   1_556  A
N663        C709   1.425       .  S
C665        H666   1.083       .  S
C670        C672   1.552       .  S
C670        C674   1.568       .  S
C670        C673   1.577       .  S
C670        C821   1.583       .  S
C671        C675   1.503       .  S
C671        C677   1.530       .  S
C671        C676   1.534       .  S
C671        C793   1.530       .  S
C672        C680   1.388       .  A
C672        C675   1.387       .  A
C673        C684   1.394       .  A
C673        C676   1.408       .  A
C674        C688   1.392       .  A
C674        C677   1.400       .  A
C675        C678   1.365       .  A
C676        C682   1.381       .  A
C677        C685   1.375       .  A
C678        N679   1.342       .  A
C678        H691   1.083       .  S
N679        C680   1.364       .  A
N679        C782   1.422       .  S
C680        H681   1.082       .  S
C682        N683   1.346       .  A
C682        H692   1.082       .  S
N683        C684   1.363       .  A
N683        C746   1.436       .  S
C684        H690   1.082       .  S
C685        N686   1.343       .  A
C685        H687   1.082       .  S
N686        C688   1.366       .  A
N686        C757   1.432       .  S
C688        H689   1.082       .  S
O693       Mg695   2.156       .  S
O693      Mg1001   2.175   1_554  S
O693       C1028   1.231       .  S
C694        H733   1.081       .  S
C694        O707   1.231       .  S
C694        O731   1.266       .  A
Mg695       O739   2.275   1_554  S
O696       Mg721   2.152       .  S
O697        C728   1.266   1_545  A
O697       Mg721   2.295       .  S
C698        O700   1.271       .  A
C698        O712   1.267   1_556  A
O699        C727   1.267       .  A
O699      Mg1001   2.302       .  S
O700       Mg732   2.261       .  S
Mg701       O993   2.175   1_546  S
Mg701       O707   2.161       .  S
Mg701       O999   2.302   1_545  S
Mg701      O1015   2.284   1_545  S
Mg701       O703   2.281       .  S
C702        O740   1.270       .  A
C702        O708   1.268   1_554  A
O703        C710   1.272   1_556  A
C705       H1030   1.081       .  S
C705       O1019   1.231       .  S
C705        O720   1.265       .  A
O706        C729   1.267       .  A
O707       Mg721   2.184   1_556  S
O708       Mg738   2.264       .  S
C709        O722   1.270       .  A
C709        O714   1.272       .  A
C710        O737   1.272       .  A
Mg711       O718   2.153       .  S
Mg711      O1019   2.191   1_554  S
Mg711       O712   2.253       .  S
Mg711      O1013   2.284       .  S
Mg711      O1040   2.260       .  S
O713        C717   1.264   1_655  A
O713      Mg1011   2.284   1_545  S
O714       Mg721   2.279   1_556  S
O715        C734   1.273       .  A
O715      Mg1001   2.284       .  S
O716        C736   1.269       .  A
O716       Mg732   2.274   1_554  S
O718       Mg732   2.175   1_554  S
O718        C729   1.232       .  S
O719      Mg1011   2.191   1_546  S
O719       Mg738   2.144       .  S
O719       C1005   1.231       .  S
O720       Mg732   2.291       .  S
Mg721       O737   2.268       .  S
H723       C1028   1.081       .  S
O724       Mg732   2.164       .  S
H726        C729   1.081       .  S
C728       H1023   1.081       .  S
C728        O993   1.231       .  S
H730       C1005   1.081       .  S
C734        O739   1.270       .  A
O735        C736   1.270       .  A
O740      Mg1011   2.260   1_545  S
O741       Mg743   2.164       .  S
C742        H781   1.081       .  S
C742        O755   1.231       .  S
C742        O779   1.265       .  A
Mg743      O1072   2.194       .  S
Mg743       O787   2.290       .  S
Mg743      O1083   2.291       .  S
Mg743      O1054   2.296       .  S
O744      Mg1086   2.189       .  S
O744       Mg769   2.167       .  S
O744       C1065   1.234       .  S
O745        C776   1.269   1_655  A
O745       Mg769   2.308       .  S
C746        O748   1.270       .  A
C746        O760   1.276       .  A
O747       C1075   1.269       .  A
O748       Mg780   2.278       .  S
Mg749       O755   2.156       .  S
Mg749       O751   2.285       .  S
C750        O788   1.273       .  A
C750        O756   1.272       .  A
O751        C758   1.270       .  A
H752       C1065   1.081       .  S
C753        O768   1.270       .  A
O754        C777   1.266       .  A
O754      Mg1043   2.296       .  S
O755       Mg769   2.158       .  S
O756       Mg786   2.291   1_545  S
C757        O770   1.277       .  A
C757        O762   1.266       .  A
C758        O785   1.267       .  A
Mg759       O766   2.172       .  S
Mg759       O760   2.312       .  S
O761        C765   1.270   1_545  A
O762       Mg769   2.260       .  S
O763        C782   1.268       .  A
O764        C784   1.271       .  A
O764       Mg780   2.286       .  S
C765       H1052   1.081       .  S
C765       O1044   1.234       .  S
O766       Mg780   2.168       .  S
O766        C777   1.232       .  S
O767       Mg786   2.185   1_545  S
O768       Mg780   2.315       .  S
Mg769       O785   2.268       .  S
O770      Mg1086   2.305       .  S
O772      Mg1043   2.194       .  S
O772       Mg780   2.163       .  S
O772        C775   1.234   1_545  S
H773        C775   1.081   1_545  S
H774        C777   1.081       .  S
C775       O1047   1.269       .  A
O779      Mg1086   2.293       .  S
C782        O787   1.272       .  A
O783        C784   1.274       .  A
O783      Mg1043   2.291       .  S
Mg786      O1044   2.189       .  S
Mg786      O1070   2.305       .  S
Mg786      O1079   2.293       .  S
C789        C790   1.408       .  A
C789        C794   1.399       .  A
C789        C807   1.452       .  S
C790        C791   1.409       .  A
C790        C795   1.477       .  S
C791        C792   1.403       .  A
C791        C796   1.452       .  S
C792        C793   1.415       .  A
C792        C808   1.450       .  S
C793        C794   1.419       .  A
C794        C797   1.453       .  S
C795        C798   1.405       .  A
C795        C802   1.409       .  A
C796        N813   1.157       .  T
C797        N815   1.158       .  T
C798        C799   1.395       .  A
C798        C803   1.451       .  S
C799        C800   1.420       .  A
C799        C805   1.453       .  S
C800        C801   1.420       .  A
C801        C802   1.407       .  A
C801        C804   1.450       .  S
C802        C806   1.452       .  S
C803        N810   1.157       .  T
C804        N811   1.158       .  T
C805        N809   1.158       .  T
C806        N812   1.157       .  T
C807        N816   1.157       .  T
C808        N814   1.157       .  T
C817        C818   1.415       .  A
C817        C822   1.427       .  A
C817        C835   1.451       .  S
C818        C819   1.413       .  A
C818        C823   1.535       .  S
C819        C820   1.427       .  A
C819        C824   1.450       .  S
C820        C821   1.430       .  A
C820        C836   1.450       .  S
C821        C822   1.429       .  A
C822        C825   1.447       .  S
C823        C826   1.414       .  A
C823        C830   1.415       .  A
C824        N841   1.157       .  T
C825        N843   1.158       .  T
C826        C827   1.424       .  A
C826        C831   1.450       .  S
C827        C828   1.426       .  A
C827        C833   1.447       .  S
C828        C829   1.429       .  A
C829        C830   1.430       .  A
C829        C832   1.449       .  S
C830        C834   1.450       .  S
C831        N838   1.157       .  T
C832        N839   1.158       .  T
C833        N837   1.157       .  T
C834        N840   1.157       .  T
C835        N844   1.157       .  T
C836        N842   1.158       .  T
C845        C846   1.412       .  A
C845        C850   1.425       .  A
C845        C863   1.450       .  S
C846        C847   1.412       .  A
C846        C851   1.526       .  S
C847        C848   1.420       .  A
C847        C852   1.451       .  S
C848        C849   1.426       .  A
C848        C864   1.448       .  S
C849        C850   1.430       .  A
C850        C853   1.450       .  S
C851        C854   1.414       .  A
C851        C858   1.413       .  A
C852        N869   1.157       .  T
C853        N871   1.158       .  T
C854        C855   1.419       .  A
C854        C859   1.451       .  S
C855        C856   1.424       .  A
C855        C861   1.449       .  S
C856        C857   1.427       .  A
C857        C858   1.426       .  A
C857        C860   1.449       .  S
C858        C862   1.450       .  S
C859        N866   1.157       .  T
C860        N867   1.158       .  T
C861        N865   1.158       .  T
C862        N868   1.157       .  T
C863        N872   1.157       .  T
C864        N870   1.158       .  T
C873        C874   1.405       .  A
C873        C878   1.401       .  A
C873        C891   1.452       .  S
C874        C875   1.407       .  A
C874        C879   1.470       .  S
C875        C876   1.395       .  A
C875        C880   1.453       .  S
C876        C877   1.416       .  A
C876        C892   1.452       .  S
C877        C878   1.420       .  A
C878        C881   1.451       .  S
C879        C882   1.405       .  A
C879        C886   1.404       .  A
C880        N897   1.157       .  T
C881        N899   1.158       .  T
C882        C883   1.396       .  A
C882        C887   1.453       .  S
C883        C884   1.419       .  A
C883        C889   1.451       .  S
C884        C885   1.424       .  A
C885        C886   1.401       .  A
C885        C888   1.453       .  S
C886        C890   1.453       .  S
C887        N894   1.157       .  T
C888        N895   1.158       .  T
C889        N893   1.157       .  T
C890        N896   1.157       .  T
C891        N900   1.157       .  T
C892        N898   1.157       .  T
C901        C903   1.507       .  S
C901        C905   1.523       .  S
C901        C904   1.525       .  S
C901       C1177   1.522       .  S
C902        C906   1.566       .  S
C902        C908   1.555       .  S
C902        C907   1.568       .  S
C902       C1156   1.573       .  S
C903        C911   1.367       .  A
C903        C906   1.392   1_554  A
C904        C915   1.373       .  A
C904        C907   1.401   1_554  A
C905        C919   1.373       .  A
C905        C908   1.395   1_554  A
C906        C909   1.393       .  A
C907        C913   1.388       .  A
C908        C916   1.385       .  A
C909        N910   1.364   1_556  A
C909        H922   1.082       .  S
N910        C911   1.339       .  A
N910       C1002   1.424       .  S
C911        H912   1.083       .  S
C913        N914   1.363   1_556  A
C913        H923   1.082       .  S
N914        C915   1.344       .  A
N914       C1010   1.426       .  S
C915        H921   1.082       .  S
C916        N917   1.364   1_556  A
C916        H918   1.082       .  S
N917        C919   1.344       .  A
N917       C1036   1.425       .  S
C919        H920   1.082       .  S
C924        C926   1.522       .  S
C924        C928   1.530       .  S
C924        C927   1.517       .  S
C924       C1184   1.527       .  S
C925        C929   1.558       .  S
C925        C931   1.568       .  S
C925        C930   1.568       .  S
C925       C1149   1.574       .  S
C926        C934   1.371       .  A
C926        C929   1.394       .  A
C927        C938   1.373       .  A
C927        C930   1.393       .  A
C928        C942   1.377       .  A
C928        C931   1.398       .  A
C929        C932   1.388       .  A
C930        C936   1.395       .  A
C931        C939   1.391       .  A
C932        N933   1.364       .  A
C932        H945   1.082       .  S
N933        C934   1.343       .  A
N933       C1050   1.427       .  S
C934        H935   1.082       .  S
C936        N937   1.365       .  A
C936        H946   1.082       .  S
N937        C938   1.342       .  A
N937       C1058   1.430       .  S
C938        H944   1.083       .  S
C939        N940   1.366       .  A
C939        H941   1.082       .  S
N940        C942   1.347       .  A
N940       C1084   1.435       .  S
C942        H943   1.083       .  S
C947        C949   1.573       .  S
C947        C951   1.558       .  S
C947        C950   1.561       .  S
C947       C1128   1.583       .  S
C948        C952   1.528       .  S
C948        C954   1.523       .  S
C948        C953   1.509       .  S
C948       C1100   1.531       .  S
C949        C957   1.393       .  A
C949        C952   1.400   1_554  A
C950        C961   1.390       .  A
C950        C953   1.394   1_554  A
C951        C965   1.381       .  A
C951        C954   1.401   1_554  A
C952        C955   1.375       .  A
C953        C959   1.365       .  A
C954        C962   1.374       .  A
C955        N956   1.341       .  A
C955        H968   1.082       .  S
N956        C957   1.364   1_556  A
N956       C1034   1.429       .  S
C957        H958   1.082       .  S
C959        N960   1.339       .  A
C959        H969   1.083       .  S
N960        C961   1.364   1_556  A
N960        C998   1.421       .  S
C961        H967   1.082       .  S
C962        N963   1.346       .  A
C962        H964   1.082       .  S
N963        C965   1.363   1_556  A
N963       C1009   1.425       .  S
C965        H966   1.083       .  S
C970        C972   1.552       .  S
C970        C974   1.568       .  S
C970        C973   1.577       .  S
C970       C1121   1.583       .  S
C971        C975   1.503       .  S
C971        C977   1.530       .  S
C971        C976   1.534       .  S
C971       C1093   1.530       .  S
C972        C980   1.388       .  A
C972        C975   1.387       .  A
C973        C984   1.394       .  A
C973        C976   1.408       .  A
C974        C988   1.392       .  A
C974        C977   1.400       .  A
C975        C978   1.365       .  A
C976        C982   1.381       .  A
C977        C985   1.375       .  A
C978        N979   1.342       .  A
C978        H991   1.083       .  S
N979        C980   1.364       .  A
N979       C1082   1.422       .  S
C980        H981   1.082       .  S
C982        N983   1.346       .  A
C982        H992   1.082       .  S
N983        C984   1.363       .  A
N983       C1046   1.436       .  S
C984        H990   1.082       .  S
C985        N986   1.343       .  A
C985        H987   1.082       .  S
N986        C988   1.366       .  A
N986       C1057   1.432       .  S
C988        H989   1.082       .  S
O993       Mg995   2.156       .  S
C994       H1033   1.081       .  S
C994       O1007   1.231       .  S
C994       O1031   1.266       .  A
Mg995      O1039   2.275   1_554  S
O996      Mg1021   2.152       .  S
O997       C1028   1.266       .  A
O997      Mg1021   2.295       .  S
C998       O1000   1.271       .  A
C998       O1012   1.267   1_556  A
O999       C1027   1.267       .  A
O1000     Mg1032   2.261       .  S
Mg1001     O1007   2.161       .  S
Mg1001     O1003   2.281       .  S
C1002      O1040   1.270       .  A
C1002      O1008   1.268   1_554  A
O1003      C1010   1.272   1_556  A
C1005      O1020   1.265   1_545  A
O1006      C1029   1.267       .  A
O1007     Mg1021   2.184   1_556  S
O1008     Mg1038   2.264       .  S
C1009      O1022   1.270       .  A
C1009      O1014   1.272       .  A
C1010      O1037   1.272       .  A
Mg1011     O1018   2.153       .  S
Mg1011     O1012   2.253       .  S
O1013      C1017   1.264   1_655  A
O1014     Mg1021   2.279   1_556  S
O1015      C1034   1.273       .  A
O1016      C1036   1.269       .  A
O1016     Mg1032   2.274   1_554  S
O1018     Mg1032   2.175   1_554  S
O1018      C1029   1.232       .  S
O1019     Mg1038   2.144       .  S
O1020     Mg1032   2.291       .  S
Mg1021     O1037   2.268       .  S
O1024     Mg1032   2.164       .  S
H1026      C1029   1.081       .  S
C1034      O1039   1.270       .  A
O1035      C1036   1.270       .  A
O1041     Mg1043   2.164   1_565  S
C1042      H1081   1.081       .  S
C1042      O1055   1.231       .  S
C1042      O1079   1.265       .  A
Mg1043     O1087   2.290   1_545  S
O1044     Mg1069   2.167       .  S
O1045      C1076   1.269   1_655  A
O1045     Mg1069   2.308       .  S
C1046      O1048   1.270       .  A
C1046      O1060   1.276       .  A
O1048     Mg1080   2.278       .  S
Mg1049     O1055   2.156       .  S
Mg1049     O1051   2.285       .  S
C1050      O1088   1.273       .  A
C1050      O1056   1.272       .  A
O1051      C1058   1.270       .  A
C1053      O1068   1.270       .  A
O1054      C1077   1.266       .  A
O1055     Mg1069   2.158       .  S
O1056     Mg1086   2.291       .  S
C1057      O1070   1.277       .  A
C1057      O1062   1.266       .  A
C1058      O1085   1.267       .  A
Mg1059     O1066   2.172       .  S
Mg1059     O1060   2.312       .  S
O1061      C1065   1.270       .  A
O1062     Mg1069   2.260       .  S
O1063      C1082   1.268       .  A
O1064      C1084   1.271       .  A
O1064     Mg1080   2.286       .  S
O1066     Mg1080   2.168       .  S
O1066      C1077   1.232       .  S
O1067     Mg1086   2.185       .  S
O1068     Mg1080   2.315       .  S
Mg1069     O1085   2.268       .  S
O1072     Mg1080   2.163       .  S
O1072      C1075   1.234       .  S
H1073      C1075   1.081       .  S
H1074      C1077   1.081       .  S
C1082      O1087   1.272       .  A
O1083      C1084   1.274       .  A
C1089      C1090   1.408       .  A
C1089      C1094   1.399       .  A
C1089      C1107   1.452       .  S
C1090      C1091   1.409       .  A
C1090      C1095   1.477       .  S
C1091      C1092   1.403       .  A
C1091      C1096   1.452       .  S
C1092      C1093   1.415       .  A
C1092      C1108   1.450       .  S
C1093      C1094   1.419       .  A
C1094      C1097   1.453       .  S
C1095      C1098   1.405       .  A
C1095      C1102   1.409       .  A
C1096      N1113   1.157       .  T
C1097      N1115   1.158       .  T
C1098      C1099   1.395       .  A
C1098      C1103   1.451       .  S
C1099      C1100   1.420       .  A
C1099      C1105   1.453       .  S
C1100      C1101   1.420       .  A
C1101      C1102   1.407       .  A
C1101      C1104   1.450       .  S
C1102      C1106   1.452       .  S
C1103      N1110   1.157       .  T
C1104      N1111   1.158       .  T
C1105      N1109   1.158       .  T
C1106      N1112   1.157       .  T
C1107      N1116   1.157       .  T
C1108      N1114   1.157       .  T
C1117      C1118   1.415       .  A
C1117      C1122   1.427       .  A
C1117      C1135   1.451       .  S
C1118      C1119   1.413       .  A
C1118      C1123   1.535       .  S
C1119      C1120   1.427       .  A
C1119      C1124   1.450       .  S
C1120      C1121   1.430       .  A
C1120      C1136   1.450       .  S
C1121      C1122   1.429       .  A
C1122      C1125   1.447       .  S
C1123      C1126   1.414       .  A
C1123      C1130   1.415       .  A
C1124      N1141   1.157       .  T
C1125      N1143   1.158       .  T
C1126      C1127   1.424       .  A
C1126      C1131   1.450       .  S
C1127      C1128   1.426       .  A
C1127      C1133   1.447       .  S
C1128      C1129   1.429       .  A
C1129      C1130   1.430       .  A
C1129      C1132   1.449       .  S
C1130      C1134   1.450       .  S
C1131      N1138   1.157       .  T
C1132      N1139   1.158       .  T
C1133      N1137   1.157       .  T
C1134      N1140   1.157       .  T
C1135      N1144   1.157       .  T
C1136      N1142   1.158       .  T
C1145      C1146   1.412       .  A
C1145      C1150   1.425       .  A
C1145      C1163   1.450       .  S
C1146      C1147   1.412       .  A
C1146      C1151   1.526       .  S
C1147      C1148   1.420       .  A
C1147      C1152   1.451       .  S
C1148      C1149   1.426       .  A
C1148      C1164   1.448       .  S
C1149      C1150   1.430       .  A
C1150      C1153   1.450       .  S
C1151      C1154   1.414       .  A
C1151      C1158   1.413       .  A
C1152      N1169   1.157       .  T
C1153      N1171   1.158       .  T
C1154      C1155   1.419       .  A
C1154      C1159   1.451       .  S
C1155      C1156   1.424       .  A
C1155      C1161   1.449       .  S
C1156      C1157   1.427       .  A
C1157      C1158   1.426       .  A
C1157      C1160   1.449       .  S
C1158      C1162   1.450       .  S
C1159      N1166   1.157       .  T
C1160      N1167   1.158       .  T
C1161      N1165   1.158       .  T
C1162      N1168   1.157       .  T
C1163      N1172   1.157       .  T
C1164      N1170   1.158       .  T
C1173      C1174   1.405       .  A
C1173      C1178   1.401       .  A
C1173      C1191   1.452       .  S
C1174      C1175   1.407       .  A
C1174      C1179   1.470       .  S
C1175      C1176   1.395       .  A
C1175      C1180   1.453       .  S
C1176      C1177   1.416       .  A
C1176      C1192   1.452       .  S
C1177      C1178   1.420       .  A
C1178      C1181   1.451       .  S
C1179      C1182   1.405       .  A
C1179      C1186   1.404       .  A
C1180      N1197   1.157       .  T
C1181      N1199   1.158       .  T
C1182      C1183   1.396       .  A
C1182      C1187   1.453       .  S
C1183      C1184   1.419       .  A
C1183      C1189   1.451       .  S
C1184      C1185   1.424       .  A
C1185      C1186   1.401       .  A
C1185      C1188   1.453       .  S
C1186      C1190   1.453       .  S
C1187      N1194   1.157       .  T
C1188      N1195   1.158       .  T
C1189      N1193   1.157       .  T
C1190      N1196   1.157       .  T
C1191      N1200   1.157       .  T
C1192      N1198   1.157       .  T
