geometry optimzed in LAMMPS
_audit_creation_date              2020-12-01 
_audit_creation_method            'lammps2cif' 
_symmetry_space_group_name_H-M    'P1' 
_symmetry_Int_Tables_number       1 
_symmetry_cell_setting            triclinic 
loop_ 
_symmetry_equiv_pos_as_xyz 
  x,y,z 
_cell_length_a                    41.75171982 
_cell_length_b                    35.34386799858873 
_cell_length_c                    32.44564841347887 
_cell_angle_alpha                 90.24247289479675 
_cell_angle_beta                  101.91059135856277 
_cell_angle_gamma                 89.79596246326925 
loop_ 
_atom_site_label 
_atom_site_type_symbol 
_atom_site_fract_x 
_atom_site_fract_y 
_atom_site_fract_z 
_atom_site_charge 
In1        In  0.24985038  0.25878288  0.16506201     1.36900
C2          C  0.19404896  0.22019088  0.14248545     0.79300
O3          O  0.23961536  0.27277833  0.22903960    -0.59100
O4          O  0.23618460  0.31703005  0.18434364    -0.50000
C5          C  0.31158720  0.24295373  0.20126716     0.72000
O6          O  0.28891950  0.21893435  0.19946945    -0.44900
C7          C  0.26111669  0.26729731  0.08815447     0.76700
O8          O  0.21865394  0.20633282  0.16734902    -0.56800
O9          O  0.25352336  0.29488409  0.10921078    -0.46800
O10         O  0.19813879  0.25320866  0.13018360    -0.53200
C11         C  0.23382655  0.30731416  0.22100556     0.86900
O12         O  0.30257937  0.27461947  0.18524259    -0.55100
O13         O  0.26306868  0.23567515  0.10641104    -0.58400
In14       In  0.29348208  0.25730500  0.81173680     1.36900
C15         C  0.34860365  0.21714324  0.83149846     0.79300
O16         O  0.30478109  0.26913591  0.74809311    -0.59100
O17         O  0.30774124  0.31453446  0.79196369    -0.50000
C18         C  0.23170112  0.24529124  0.77341829     0.72000
O19         O  0.25288680  0.21910330  0.77833371    -0.44900
C20         C  0.28358785  0.26630162  0.88958941     0.76700
O21         O  0.32270543  0.20321271  0.80944699    -0.56800
O22         O  0.29138998  0.29354729  0.86859113    -0.46800
O23         O  0.34606739  0.25104242  0.84251901    -0.53200
C24         C  0.31050700  0.30379210  0.75564903     0.86900
O25         O  0.24215223  0.27710346  0.78774151    -0.55100
O26         O  0.28047599  0.23485015  0.87073403    -0.58400
C27         C  0.35541349  0.40289627  0.62988535     0.88200
C28         C  0.33957471  0.38371807  0.66279273    -0.52000
C29         C  0.33322666  0.34600535  0.65529272     0.11200
C30         C  0.34270272  0.33168234  0.61423050     0.22100
C31         C  0.38581527  0.37921960  0.62838646    -0.52700
C32         C  0.37957143  0.34149415  0.62088995     0.11300
C33         C  0.33199055  0.39595567  0.58769015    -0.52300
C34         C  0.32504617  0.35875212  0.57909165     0.11800
H35         H  0.33475041  0.39901871  0.68995930     0.16300
H36         H  0.33727430  0.30126229  0.60756552     0.02100
H37         H  0.41001240  0.39166066  0.63430458     0.16600
H38         H  0.32150921  0.41864870  0.56652080     0.16400
C39         C  0.32404487  0.63308352  0.58961840     0.88200
C40         C  0.31376189  0.64664565  0.62975438    -0.52000
C41         C  0.33770208  0.64260284  0.66545352     0.11200
C42         C  0.36962108  0.62471032  0.65704451     0.22100
C43         C  0.35517609  0.65477930  0.58808497    -0.52700
C44         C  0.37924517  0.65087597  0.62327255     0.11300
C45         C  0.33472428  0.59216497  0.59799116    -0.52300
C46         C  0.35840985  0.58752800  0.63325758     0.11800
H47         H  0.28956530  0.65801320  0.62970343     0.16300
H48         H  0.38881142  0.62086096  0.68597171     0.02100
H49         H  0.35761686  0.67274978  0.56179755     0.16600
H50         H  0.32400895  0.56866727  0.57815085     0.16400
In51       In  0.24115087  0.71655585  0.15581699     1.36900
C52         C  0.21874590  0.67953665  0.21569552     0.79300
O53         O  0.28962774  0.68800967  0.17969580    -0.59100
O54         O  0.28763720  0.74814456  0.18218438    -0.50000
C55         C  0.24859031  0.69161899  0.08062958     0.72000
O56         O  0.23739336  0.67080111  0.10577447    -0.44900
C57         C  0.20028228  0.77637251  0.14345719     0.76700
O58         O  0.20862945  0.67239731  0.17706243    -0.56800
O59         O  0.22992585  0.77870786  0.16172680    -0.46800
O60         O  0.23961067  0.70565080  0.22317541    -0.53200
C61         C  0.30490267  0.71856412  0.18912646     0.86900
O62         O  0.25435563  0.72516493  0.09296381    -0.55100
O63         O  0.19152655  0.74351548  0.13060947    -0.58400
In64       In  0.28922159  0.72263815  0.82247167     1.36900
C65         C  0.30615572  0.69663040  0.75286701     0.79300
O66         O  0.23987228  0.69761573  0.79609256    -0.59100
O67         O  0.24333692  0.75748775  0.80254986    -0.50000
C68         C  0.28557149  0.69163754  0.89611777     0.72000
O69         O  0.29496324  0.67267365  0.86768854    -0.44900
C70         C  0.33331264  0.77790912  0.84131313     0.76700
O71         O  0.31408584  0.67916167  0.78748294    -0.56800
O72         O  0.30290279  0.78390138  0.83209191    -0.46800
O73         O  0.29037625  0.72679180  0.75455900    -0.53200
C74         C  0.22537832  0.72911066  0.79118471     0.86900
O75         O  0.27949449  0.72585163  0.88739031    -0.55100
O76         O  0.34131531  0.74339213  0.84238027    -0.58400
C77         C  0.18579877  0.40574899  0.34680166     0.88200
C78         C  0.20308773  0.38767745  0.31424855    -0.52000
C79         C  0.21008474  0.34999388  0.32098058     0.11200
C80         C  0.19984204  0.33455482  0.36087521     0.22100
C81         C  0.15557933  0.38097497  0.34611763    -0.52700
C82         C  0.16270581  0.34329839  0.35295918     0.11300
C83         C  0.20844452  0.39837788  0.38955716    -0.52300
C84         C  0.21613037  0.36122162  0.39720484     0.11800
H85         H  0.20829661  0.40348171  0.28775739     0.16300
H86         H  0.20586982  0.30417867  0.36688292     0.02100
H87         H  0.13092717  0.39242342  0.33994325     0.16600
H88         H  0.21809847  0.42082626  0.41165237     0.16400
C89         C  0.22015504  0.63502017  0.40222727     0.88200
C90         C  0.23537240  0.64765589  0.36560216    -0.52000
C91         C  0.21470752  0.64500096  0.32705065     0.11200
C92         C  0.18051863  0.62902752  0.32916759     0.22100
C93         C  0.18924204  0.65882217  0.39862041    -0.52700
C94         C  0.16829336  0.65608487  0.36047265     0.11300
C95         C  0.20849403  0.59472921  0.39154415    -0.52300
C96         C  0.18794605  0.59123629  0.35332663     0.11800
H97         H  0.25998662  0.65904140  0.36995724     0.16300
H98         H  0.16352814  0.62618068  0.29823985     0.02100
H99         H  0.18469820  0.67717709  0.42377789     0.16600
H100        H  0.21644602  0.57075154  0.41204721     0.16400
In101      In  0.03785920  0.22956196  0.31339726     1.36900
C102        C  0.06105258  0.18604804  0.25852235     0.79300
O103        O  0.48697230  0.19624473  0.29485629    -0.59100
O104        O  0.49134986  0.25491500  0.28327352    -0.50000
C105        C  0.03028920  0.21470713  0.39086074     0.72000
O106        O  0.03962985  0.18973996  0.36798189    -0.44900
C107        C  0.08191966  0.28570901  0.32417054     0.76700
O108        O  0.06931677  0.18124239  0.29779229    -0.56800
O109        O  0.05315751  0.28940207  0.30284523    -0.46800
O110        O  0.04106895  0.21278319  0.24770538    -0.53200
C111        C  0.47279897  0.22653170  0.28102834     0.86900
O112        O  0.02567443  0.24707661  0.37464533    -0.55100
O113        O  0.08811159  0.25339282  0.34017123    -0.58400
In114      In  0.00584293  0.23798239  0.66413009     1.36900
C115        C  0.49318419  0.20305693  0.72998593     0.79300
O116        O  0.05455585  0.20858432  0.68169869    -0.56700
O117        O  0.05338175  0.26847031  0.68880042    -0.50000
C118        C  0.00725332  0.21756463  0.58622389     0.72000
O119        O  0.99623437  0.19572410  0.61076392    -0.44900
C120        C  0.46285682  0.28886816  0.64675956     0.76700
O121        O  0.48849958  0.18675382  0.69450846    -0.56800
O122        O  0.49277946  0.29635316  0.65996733    -0.46800
O123        O  0.50519917  0.23573409  0.73090402    -0.53200
C124        C  0.07041973  0.23856842  0.69245030     0.86900
O125        O  0.01697539  0.24934855  0.60139083    -0.55100
O126        O  0.45643694  0.25407749  0.64195298    -0.58400
C127        C  0.47262411  0.12952723  0.88485248     0.88200
C128        C  0.48572838  0.14317228  0.84693462    -0.52000
C129        C  0.46459923  0.13749559  0.80913134     0.11200
C130        C  0.43259667  0.11748384  0.81304236     0.22100
C131        C  0.43941082  0.14946909  0.88107266    -0.52700
C132        C  0.41833966  0.14342286  0.84310907     0.11300
C133        C  0.46448536  0.08784321  0.87613093    -0.52300
C134        C  0.44349697  0.08143910  0.83875293     0.11800
H135        H  0.00760699  0.15950360  0.85131790     0.16300
H136        H  0.41559000  0.11230902  0.78238719     0.02100
H137        H  0.43339780  0.16693520  0.90601429     0.16600
H138        H  0.47419352  0.06529723  0.89787878     0.16400
C139        C  0.43589218  0.89668183  0.84396402     0.88200
C140        C  0.45140228  0.87793880  0.81025244    -0.52000
C141        C  0.45911904  0.84058213  0.81765460     0.11200
C142        C  0.45091968  0.82596235  0.85915654     0.22100
C143        C  0.40630092  0.87199301  0.84670697    -0.52700
C144        C  0.41400490  0.83451866  0.85448969     0.11300
C145        C  0.46030100  0.89045941  0.88551854    -0.52300
C146        C  0.46823365  0.85347084  0.89372186     0.11800
H147        H  0.45553220  0.89334899  0.78297940     0.16300
H148        H  0.45745099  0.79577805  0.86575944     0.02100
H149        H  0.38165126  0.88344067  0.84161820     0.16600
H150        H  0.47032141  0.91335023  0.90678162     0.16400
In151      In  0.03383626  0.74834054  0.30677877     1.36900
C152        C  0.08440317  0.70088071  0.31537200     0.79300
O153        O  0.04415215  0.76499288  0.24412328    -0.59100
O154        O  0.05126119  0.80619642  0.29297151    -0.50000
C155        C  0.46584859  0.73328953  0.26755927     0.72000
O156        O  0.48658878  0.70684338  0.27234867    -0.44900
C157        C  0.02578370  0.75483076  0.38602841     0.76700
O158        O  0.05705764  0.69343382  0.29198013    -0.56800
O159        O  0.03521738  0.78207941  0.36652060    -0.46800
O160        O  0.08563294  0.73235437  0.33412975    -0.53200
C161        C  0.05225425  0.79840884  0.25523872     0.86900
O162        O  0.47710934  0.76529581  0.27997596    -0.55100
O163        O  0.02060627  0.72447204  0.36525228    -0.58400
In164      In  0.00276186  0.74770908  0.66772413     1.36900
C165        C  0.46225105  0.69950295  0.66104637     0.79300
O166        O  0.99312716  0.76405275  0.73080805    -0.59100
O167        O  0.48815873  0.80855048  0.68235146    -0.50000
C168        C  0.06552401  0.73981318  0.70373001     0.72000
O169        O  0.04582824  0.71239713  0.69916326    -0.44900
C170        C  0.00717842  0.75419804  0.58697485     0.76700
O171        O  0.49018074  0.69538486  0.68439027    -0.56800
O172        O  0.99797401  0.78120744  0.60733956    -0.46800
O173        O  0.45841146  0.72998824  0.64050946    -0.53200
C174        C  0.48681322  0.79942037  0.71955861     0.86900
O175        O  0.05328382  0.77098737  0.68975278    -0.55100
O176        O  0.01392068  0.72408233  0.60761738    -0.58400
C177        C  0.07174569  0.13286094  0.07811762     0.88200
C178        C  0.05403422  0.14796982  0.11152923    -0.52000
C179        C  0.07124354  0.14414363  0.15194923     0.11200
C180        C  0.10484235  0.12423535  0.15490980     0.22100
C181        C  0.10480108  0.15320289  0.08668398    -0.52700
C182        C  0.12229572  0.14903068  0.12717534     0.11300
C183        C  0.07966728  0.09165677  0.08984594    -0.52300
C184        C  0.09697898  0.08683564  0.12987308     0.11800
H185        H  0.03037691  0.16204639  0.10370718     0.16300
H186        H  0.11922888  0.12025486  0.18737172     0.02100
H187        H  0.11338833  0.16931636  0.06273581     0.16600
H188        H  0.07217407  0.06818208  0.06830096     0.16400
C189        C  0.09941436  0.90075347  0.13365933     0.88200
C190        C  0.08304935  0.88165066  0.16625898    -0.52000
C191        C  0.07560097  0.84431727  0.15771172     0.11200
C192        C  0.08458088  0.83016921  0.11650182     0.22100
C193        C  0.12928569  0.87565627  0.13154823    -0.52700
C194        C  0.12155609  0.83827152  0.12284343     0.11300
C195        C  0.07569799  0.89489020  0.09135829    -0.52300
C196        C  0.06789176  0.85800867  0.08224580     0.11800
H197        H  0.07849188  0.89653240  0.19379181     0.16300
H198        H  0.07809325  0.80009000  0.10907027     0.02100
H199        H  0.15404948  0.88662141  0.13719045     0.16600
H200        H  0.06592761  0.91798492  0.07033923     0.16400
C201        C  0.10606772  0.04906437  0.14532800    -0.16800
C202        C  0.10964748  0.01521744  0.14995761     0.07300
C203        C  0.10978469  0.97502448  0.14833091     0.09100
C204        C  0.10688769  0.94113540  0.14309865    -0.17600
C205        C  0.06235893  0.82633239  0.22677288    -0.14700
C206        C  0.06284125  0.81810614  0.18629921    -0.29900
H207        H  0.07036739  0.85366741  0.24013549     0.14300
H208        H  0.05541527  0.79014426  0.17411205     0.14900
C209        C  0.01009613  0.75733467  0.54350578    -0.16800
C210        C  0.01328970  0.75863025  0.50726559     0.07300
C211        C  0.01754568  0.75885345  0.46491776     0.09100
C212        C  0.02133114  0.75784838  0.42890709    -0.17600
C213        C  0.49046188  0.84245812  0.93236511    -0.16800
C214        C  0.00701189  0.84139231  0.96887073     0.07300
C215        C  0.02791593  0.84224623  0.00938594     0.09100
C216        C  0.04604741  0.84707968  0.04326025    -0.17600
C217        C  0.47455002  0.82545626  0.74861715    -0.14700
C218        C  0.47262914  0.81546096  0.78821304    -0.29900
H219        H  0.46638048  0.85305135  0.73633392     0.14300
H220        H  0.48022605  0.78723949  0.79923018     0.14900
C221        C  0.05253540  0.13739463  0.03502562    -0.16800
C222        C  0.03510068  0.13945085  0.00045599     0.07300
C223        C  0.01343354  0.13972426  0.96074366     0.09100
C224        C  0.49562508  0.13571559  0.92523325    -0.17600
C225        C  0.42820752  0.93680812  0.83502656    -0.16800
C226        C  0.42564191  0.97037818  0.82853935     0.07300
C227        C  0.42713530  0.01007346  0.82451107     0.09100
C228        C  0.43243568  0.04361220  0.82679227    -0.17600
C229        C  0.47045612  0.15291284  0.76889719    -0.14700
C230        C  0.48620390  0.18593744  0.76831155    -0.29900
H231        H  0.46026604  0.13827647  0.73968514     0.14300
H232        H  0.99061232  0.20462124  0.79793497     0.14900
C233        C  0.05882949  0.16278909  0.18677966    -0.14700
C234        C  0.07396763  0.16272300  0.22756392    -0.29900
H235        H  0.03623491  0.17889826  0.17780178     0.14300
H236        H  0.09591014  0.14607374  0.23838927     0.14900
C237        C  0.00926410  0.20752112  0.54395941    -0.16800
C238        C  0.01322525  0.20379412  0.50840222     0.07300
C239        C  0.01937392  0.20390674  0.46720301     0.09100
C240        C  0.02480422  0.20716429  0.43230087    -0.17600
C241        C  0.11268887  0.67478868  0.32067703    -0.14700
C242        C  0.13907304  0.68093531  0.35131701    -0.29900
H243        H  0.11126851  0.65001759  0.30056243     0.14300
H244        H  0.13892350  0.70500930  0.37226356     0.14900
C245        C  0.10607821  0.31695513  0.32944721    -0.14700
C246        C  0.13760484  0.31268824  0.34963532    -0.29900
H247        H  0.09766235  0.34372209  0.31496478     0.14300
H248        H  0.14594327  0.28512392  0.36216387     0.14900
C249        C  0.17832946  0.44626909  0.33892534    -0.16800
C250        C  0.17464784  0.48008798  0.33438294     0.07300
C251        C  0.17378808  0.52019816  0.33308191     0.09100
C252        C  0.17721142  0.55400721  0.33782317    -0.17600
C253        C  0.09952701  0.73607990  0.72341655    -0.16800
C254        C  0.12825442  0.73449834  0.73958756     0.07300
C255        C  0.16203809  0.73348819  0.75808776     0.09100
C256        C  0.19092727  0.73220491  0.77349905    -0.17600
C257        C  0.35713141  0.80930507  0.84832710    -0.14700
C258        C  0.38969678  0.80361667  0.85445303    -0.29900
H259        H  0.34706167  0.83772470  0.84565836     0.14300
H260        H  0.39903173  0.77479356  0.85712554     0.14900
C261        C  0.33955559  0.71959011  0.20611143    -0.16800
C262        C  0.36871115  0.72101153  0.21972616     0.07300
C263        C  0.40281719  0.72386507  0.23560407     0.09100
C264        C  0.43174364  0.72748632  0.24970433    -0.17600
C265        C  0.17791635  0.80954273  0.13889886    -0.14700
C266        C  0.14557440  0.80679369  0.12263816    -0.29900
H267        H  0.18828370  0.83630123  0.15164166     0.14300
H268        H  0.13563335  0.77937110  0.11140276     0.14900
C269        C  0.20726915  0.65925153  0.24971845    -0.14700
C270        C  0.22482396  0.66089894  0.28938978    -0.29900
H271        H  0.18471623  0.64322613  0.24201877     0.14300
H272        H  0.24804720  0.67586965  0.29508496     0.14900
C273        C  0.25546684  0.67839084  0.04127366    -0.16800
C274        C  0.26349101  0.67190611  0.00820101     0.07300
C275        C  0.27357160  0.67067391  0.96908904     0.09100
C276        C  0.28079090  0.67621528  0.93541389    -0.17600
C277        C  0.29894203  0.63748915  0.55130001    -0.16800
C278        C  0.28008043  0.63938615  0.51798014     0.07300
C279        C  0.25944546  0.63959219  0.47789939     0.09100
C280        C  0.24205986  0.63824497  0.44345794    -0.17600
C281        C  0.33335832  0.65476438  0.70800188    -0.14700
C282        C  0.31318754  0.68356029  0.71245884    -0.29900
H283        H  0.34744785  0.64072209  0.73562143     0.14300
H284        H  0.30114597  0.69924462  0.68485960     0.14900
C285        C  0.40904800  0.67434617  0.62754288    -0.14700
C286        C  0.43578302  0.67142117  0.65835103    -0.29900
H287        H  0.40850552  0.69614114  0.60386522     0.14300
H288        H  0.43812359  0.64916381  0.68165230     0.14900
C289        C  0.23901154  0.34965909  0.43556012    -0.16800
C290        C  0.25885646  0.34505622  0.46841415     0.07300
C291        C  0.28239954  0.34420066  0.50739766     0.09100
C292        C  0.30221121  0.34762898  0.54049399    -0.17600
C293        C  0.40554367  0.31177157  0.62445241    -0.14700
C294        C  0.43771730  0.31888411  0.63858928    -0.29900
H295        H  0.39761412  0.28277681  0.61772799     0.14300
H296        H  0.44637771  0.34738861  0.64615935     0.14900
C297        C  0.36289234  0.44302360  0.63918802    -0.16800
C298        C  0.36824088  0.47626758  0.64570292     0.07300
C299        C  0.37141645  0.51597094  0.64938615     0.09100
C300        C  0.36914964  0.54991101  0.64647175    -0.17600
C301        C  0.10540574  0.23845789  0.70792241    -0.16800
C302        C  0.13468487  0.23796775  0.72137297     0.07300
C303        C  0.16889956  0.23805572  0.73807347     0.09100
C304        C  0.19784106  0.23977943  0.75343934    -0.17600
C305        C  0.37982582  0.19647094  0.84457951    -0.14700
C306        C  0.38568937  0.16188393  0.83036399    -0.29900
H307        H  0.39920782  0.21128148  0.86592035     0.14300
H308        H  0.36716970  0.14806068  0.80676453     0.14900
C309        C  0.31994127  0.33015498  0.72504996    -0.14700
C310        C  0.32163083  0.32001507  0.68535634    -0.29900
H311        H  0.32618731  0.35855426  0.73647436     0.14300
H312        H  0.31581666  0.29113983  0.67502443     0.14900
C313        C  0.34546886  0.23531731  0.21983252    -0.16800
C314        C  0.37447190  0.23185143  0.23427422     0.07300
C315        C  0.40873654  0.22971931  0.25052955     0.09100
C316        C  0.43798495  0.22844339  0.26424354    -0.17600
C317        C  0.15445863  0.16759545  0.14359701    -0.14700
C318        C  0.16274317  0.20026379  0.12742488    -0.29900
H319        H  0.17076367  0.15515775  0.17060310     0.14300
H320        H  0.14538461  0.21408305  0.10243700     0.14900
C321        C  0.22454693  0.33444147  0.25144528    -0.14700
C322        C  0.22275656  0.32452532  0.29106249    -0.29900
H323        H  0.21806650  0.36275508  0.24004040     0.14300
H324        H  0.22881639  0.29572871  0.30129096     0.14900
C325        C  0.26678483  0.27120751  0.04608330    -0.16800
C326        C  0.27098031  0.27244345  0.01035347     0.07300
C327        C  0.27533132  0.27208549  0.96817145     0.09100
C328        C  0.27895234  0.27040084  0.93218679    -0.17600
In329      In  0.75067998  0.25567537  0.16605337     1.36900
C330        C  0.69512152  0.21680389  0.14427081     0.79300
O331        O  0.73742827  0.26743321  0.22879525    -0.59100
O332        O  0.74059313  0.31387620  0.18849052    -0.50000
C333        C  0.81235522  0.23993196  0.20235258     0.72000
O334        O  0.79057892  0.21454818  0.19578957    -0.44900
C335        C  0.76014418  0.26792867  0.08873865     0.76700
O336        O  0.72007899  0.20265568  0.16820222    -0.56800
O337        O  0.75090427  0.29381167  0.11061622    -0.46800
O338        O  0.69879253  0.25016960  0.13270790    -0.53200
C339        C  0.73504775  0.30274139  0.22326353     0.86900
O340        O  0.80247931  0.27264981  0.19092467    -0.55100
O341        O  0.76455541  0.23602601  0.10626877    -0.58400
In342      In  0.79411312  0.26134294  0.81446894     1.36900
C343        C  0.84841209  0.22027379  0.83528760     0.79300
O344        O  0.80524272  0.27270539  0.75054815    -0.59100
O345        O  0.80675437  0.31868863  0.79328820    -0.50000
C346        C  0.73272980  0.24727949  0.77746413     0.72000
O347        O  0.75465368  0.22204412  0.78106016    -0.44900
C348        C  0.78459752  0.27252110  0.89191856     0.76700
O349        O  0.82253287  0.20682087  0.81280377    -0.56800
O350        O  0.79325531  0.29896866  0.87054374    -0.46800
O351        O  0.84633600  0.25427070  0.84619241    -0.53200
C352        C  0.80980418  0.30764156  0.75724095     0.86900
O353        O  0.74218855  0.27910267  0.79271442    -0.55100
O354        O  0.78059273  0.24082163  0.87367016    -0.58400
C355        C  0.85265806  0.40655092  0.63019290     0.88200
C356        C  0.83652035  0.38754652  0.66292757    -0.52000
C357        C  0.83060766  0.34970826  0.65587992     0.11200
C358        C  0.84060278  0.33507995  0.61532176     0.22100
C359        C  0.88338626  0.38302425  0.62959503    -0.52700
C360        C  0.87737363  0.34520017  0.62227814     0.11300
C361        C  0.82969713  0.39896068  0.58775404    -0.52300
C362        C  0.82310687  0.36159964  0.57969460     0.11800
H363        H  0.83120351  0.40303393  0.68969616     0.16300
H364        H  0.83541977  0.30456512  0.60898272     0.02100
H365        H  0.90754688  0.39558353  0.63552138     0.16600
H366        H  0.81921517  0.42131148  0.56611142     0.16400
C367        C  0.81702666  0.63428260  0.57848173     0.88200
C368        C  0.80177985  0.64779407  0.61483080    -0.52000
C369        C  0.82234080  0.64550817  0.65345570     0.11200
C370        C  0.85659052  0.62918057  0.65175932     0.22100
C371        C  0.84798732  0.65769816  0.58189972    -0.52700
C372        C  0.86889318  0.65537565  0.62010486     0.11300
C373        C  0.82863963  0.59406155  0.58976604    -0.52300
C374        C  0.84920035  0.59110679  0.62805388     0.11800
H375        H  0.77715851  0.65935464  0.61025153     0.16300
H376        H  0.87355272  0.62682775  0.68279338     0.02100
H377        H  0.85262601  0.67547142  0.55652754     0.16600
H378        H  0.82080400  0.56979821  0.56952128     0.16400
In379      In  0.74791651  0.72560621  0.15872565     1.36900
C380        C  0.73280513  0.69563328  0.22729799     0.79300
O381        O  0.79760948  0.69995958  0.17958366    -0.59100
O382        O  0.79349379  0.76007505  0.17985942    -0.50000
C383        C  0.75227136  0.69797110  0.08390156     0.72000
O384        O  0.74336173  0.67758074  0.11136213    -0.44900
C385        C  0.70353556  0.78102318  0.14285598     0.76700
O386        O  0.72420643  0.67988938  0.19163644    -0.56800
O387        O  0.73368011  0.78691318  0.15593562    -0.46800
O388        O  0.74809767  0.72617977  0.22708474    -0.53200
C389        C  0.81182935  0.73136903  0.18685345     0.86900
O390        O  0.75716867  0.73219038  0.09394566    -0.55100
O391        O  0.69594356  0.74657493  0.13679841    -0.58400
In392      In  0.79376578  0.72047496  0.82206177     1.36900
C393        C  0.81645052  0.68066955  0.76402746     0.79300
O394        O  0.74318258  0.69831722  0.79646169    -0.59100
O395        O  0.75039010  0.75791612  0.79768022    -0.50000
C396        C  0.78630290  0.69612573  0.89702326     0.72000
O397        O  0.79215200  0.67379137  0.86911412    -0.44900
C398        C  0.83607133  0.77786841  0.83245007     0.76700
O399        O  0.82691948  0.67535815  0.80288470    -0.56800
O400        O  0.80683116  0.78096446  0.81293461    -0.46800
O401        O  0.79482223  0.70595482  0.75552299    -0.53200
C402        C  0.73076620  0.73069329  0.78846430     0.86900
O403        O  0.78538344  0.73055788  0.88722443    -0.55100
O404        O  0.84372186  0.74545819  0.84753594    -0.58400
C405        C  0.68327323  0.39919416  0.34721773     0.88200
C406        C  0.70027677  0.38102024  0.31452788    -0.52000
C407        C  0.70801584  0.34357518  0.32190479     0.11200
C408        C  0.69843563  0.32848134  0.36241103     0.22100
C409        C  0.65359420  0.37412204  0.34781693    -0.52700
C410        C  0.66122491  0.33667959  0.35507371     0.11300
C411        C  0.70649459  0.39288819  0.38967996    -0.52300
C412        C  0.71468461  0.35596327  0.39797940     0.11800
H413        H  0.70449892  0.39659369  0.28740928     0.16300
H414        H  0.70490108  0.29827044  0.36892421     0.02100
H415        H  0.62882745  0.38526374  0.34205093     0.16600
H416        H  0.71599151  0.41580488  0.41120140     0.16400
C417        C  0.71567176  0.63006618  0.38885921     0.88200
C418        C  0.72715707  0.64192678  0.34901634    -0.52000
C419        C  0.70384815  0.63733820  0.31275388     0.11200
C420        C  0.67149393  0.62044229  0.32022430     0.22100
C421        C  0.68441795  0.65267639  0.38824639    -0.52700
C422        C  0.66111052  0.64810269  0.35233436     0.11300
C423        C  0.70477107  0.58912372  0.38130567    -0.52300
C424        C  0.68179589  0.58387776  0.34542926     0.11800
H425        H  0.75140484  0.65326393  0.34967666     0.16300
H426        H  0.65299143  0.61599563  0.29076671     0.02100
H427        H  0.68136941  0.67167363  0.41360236     0.16600
H428        H  0.71478555  0.56606161  0.40217181     0.16400
In429      In  0.53695535  0.22263594  0.31373408     1.36900
C430        C  0.55910759  0.17929402  0.25776667     0.79300
O431        O  0.98856409  0.20198820  0.29493268    -0.59100
O432        O  0.99187409  0.26069360  0.28210231    -0.50000
C433        C  0.53134834  0.20611128  0.39154515     0.72000
O434        O  0.54137860  0.18216903  0.36815919    -0.44900
C435        C  0.58094128  0.27885568  0.32553623     0.76700
O436        O  0.56519430  0.17189096  0.29659059    -0.56800
O437        O  0.55198817  0.28294340  0.30509911    -0.46800
O438        O  0.54196561  0.20858436  0.24802532    -0.53200
C439        C  0.97386560  0.23182780  0.28055843     0.86900
O440        O  0.52486830  0.23833772  0.37557749    -0.55100
O441        O  0.58747119  0.24605719  0.33994908    -0.58400
In442      In  0.50887403  0.23564594  0.66354119     1.36900
C443        C  0.98946382  0.20552194  0.73043554     0.79300
O444        O  0.55840497  0.20860499  0.67975727    -0.56700
O445        O  0.55508522  0.26794921  0.68978752    -0.50000
C446        C  0.50995969  0.21237386  0.58648292     0.72000
O447        O  0.50054916  0.19101794  0.61275390    -0.44900
C448        C  0.96037529  0.29205395  0.64813915     0.76700
O449        O  0.98345244  0.18987002  0.69452075    -0.56800
O450        O  0.99006628  0.29882734  0.66395880    -0.46800
O451        O  0.00284616  0.23747602  0.73166729    -0.53200
C452        C  0.57306569  0.23890254  0.69224508     0.86900
O453        O  0.51797667  0.24535341  0.59933999    -0.55100
O454        O  0.95394282  0.25760623  0.64028037    -0.58400
C455        C  0.97142170  0.13168743  0.88696256     0.88200
C456        C  0.98411793  0.14559049  0.84870471    -0.52000
C457        C  0.96268416  0.13979378  0.81109387     0.11200
C458        C  0.93092458  0.11969218  0.81556032     0.22100
C459        C  0.93827300  0.15145008  0.88378774    -0.52700
C460        C  0.91698362  0.14555185  0.84600892     0.11300
C461        C  0.96336511  0.09000629  0.87822197    -0.52300
C462        C  0.94226063  0.08364252  0.84095811     0.11800
H463        H  0.50934125  0.15689281  0.84994580     0.16300
H464        H  0.91369636  0.11451618  0.78508011     0.02100
H465        H  0.93254397  0.16887232  0.90895416     0.16600
H466        H  0.97356063  0.06738828  0.89960157     0.16400
C467        C  0.93789683  0.89871737  0.84307406     0.88200
C468        C  0.95465191  0.87961543  0.81083248    -0.52000
C469        C  0.96189474  0.84227294  0.81900626     0.11200
C470        C  0.95245704  0.82814102  0.85987359     0.22100
C471        C  0.90792990  0.87411436  0.84439029    -0.52700
C472        C  0.91551062  0.83673562  0.85294404     0.11300
C473        C  0.96105936  0.89286290  0.88567736    -0.52300
C474        C  0.96868401  0.85593731  0.89469809     0.11800
H475        H  0.95961185  0.89456802  0.78365622     0.16300
H476        H  0.95875940  0.79799055  0.86710004     0.02100
H477        H  0.88327339  0.88548943  0.83866823     0.16600
H478        H  0.97038756  0.91592236  0.90707502     0.16400
In479      In  0.52866092  0.74443530  0.30177735     1.36900
C480        C  0.57793614  0.69517821  0.30880437     0.79300
O481        O  0.53743305  0.76237525  0.23835764    -0.59100
O482        O  0.54826576  0.80150426  0.28892257    -0.50000
C483        C  0.97181326  0.74016291  0.26914078     0.72000
O484        O  0.99160939  0.71269538  0.27410065    -0.44900
C485        C  0.52428197  0.75410154  0.38227362     0.76700
O486        O  0.55056393  0.68929009  0.28482058    -0.56800
O487        O  0.53117665  0.78081828  0.35998033    -0.46800
O488        O  0.57992651  0.72607928  0.32868253    -0.53200
C489        C  0.54788745  0.79475341  0.25065289     0.86900
O490        O  0.98363759  0.77143262  0.28332415    -0.55100
O491        O  0.51940329  0.72271208  0.36351328    -0.58400
In492      In  0.50837907  0.75204446  0.66671586     1.36900
C493        C  0.95308620  0.69977412  0.66231535     0.79300
O494        O  0.49662409  0.76636307  0.72962605    -0.59100
O495        O  0.98510966  0.80550575  0.68252358    -0.50000
C496        C  0.57153428  0.74781244  0.70132469     0.72000
O497        O  0.55301530  0.71936078  0.69740947    -0.44900
C498        C  0.51250803  0.75905838  0.58585544     0.76700
O499        O  0.98138502  0.69195244  0.68287295    -0.56800
O500        O  0.50053306  0.78475132  0.60533900    -0.46800
O501        O  0.95056648  0.73173939  0.64479295    -0.53200
C502        C  0.98440126  0.79736453  0.72018196     0.86900
O503        O  0.55788873  0.77841407  0.68763353    -0.55100
O504        O  0.52222751  0.73014569  0.60748780    -0.58400
C505        C  0.57270333  0.13216663  0.07610208     0.88200
C506        C  0.55502370  0.14798415  0.10926662    -0.52000
C507        C  0.57148811  0.14290525  0.14988026     0.11200
C508        C  0.60449086  0.12170618  0.15327880     0.22100
C509        C  0.60644646  0.15090094  0.08571708    -0.52700
C510        C  0.62323374  0.14584824  0.12643877     0.11300
C511        C  0.57904157  0.09059378  0.08741144    -0.52300
C512        C  0.59563935  0.08490546  0.12763118     0.11800
H513        H  0.53186713  0.16309022  0.10121871     0.16300
H514        H  0.61830885  0.11702822  0.18591814     0.02100
H515        H  0.61595564  0.16680134  0.06235819     0.16600
H516        H  0.57099333  0.06752945  0.06548798     0.16400
C517        C  0.59784054  0.89878185  0.13299381     0.88200
C518        C  0.58067382  0.87903427  0.16435807    -0.52000
C519        C  0.57421040  0.84155766  0.15545395     0.11200
C520        C  0.58509064  0.82788400  0.11523086     0.22100
C521        C  0.62853451  0.87480252  0.13262045    -0.52700
C522        C  0.62195898  0.83723595  0.12358540     0.11300
C523        C  0.57558443  0.89244363  0.08975668    -0.52300
C524        C  0.56885279  0.85538780  0.08028730     0.11800
H525        H  0.57459725  0.89367412  0.19122725     0.16300
H526        H  0.57950594  0.79764833  0.10754547     0.02100
H527        H  0.65294501  0.88673593  0.13990456     0.16600
H528        H  0.56592871  0.91535519  0.06842862     0.16400
C529        C  0.60320166  0.04691789  0.14301497    -0.16800
C530        C  0.60628036  0.01316314  0.14827059     0.07300
C531        C  0.60662312  0.97308089  0.14749926     0.09100
C532        C  0.60426670  0.93919139  0.14264028    -0.17600
C533        C  0.55926723  0.82263718  0.22314060    -0.14700
C534        C  0.56013263  0.81513371  0.18262328    -0.29900
H535        H  0.56833539  0.84931946  0.23748981     0.14300
H536        H  0.55209210  0.78764979  0.16944653     0.14900
C537        C  0.51492077  0.76205981  0.54213672    -0.16800
C538        C  0.51733576  0.76249937  0.50553627     0.07300
C539        C  0.52012592  0.76124070  0.46257514     0.09100
C540        C  0.52218940  0.75881724  0.42593389    -0.17600
C541        C  0.98945776  0.84514273  0.93443643    -0.16800
C542        C  0.50895680  0.83863415  0.96616505     0.07300
C543        C  0.53029326  0.83936594  0.00644121     0.09100
C544        C  0.54811232  0.84414966  0.04057611    -0.17600
C545        C  0.97390376  0.82468219  0.74916838    -0.14700
C546        C  0.97458921  0.81634094  0.78987171    -0.29900
H547        H  0.96465932  0.85169485  0.73600258     0.14300
H548        H  0.98302510  0.78861510  0.80182716     0.14900
C549        C  0.55413656  0.13748324  0.03272807    -0.16800
C550        C  0.53682927  0.13921306  0.99800780     0.07300
C551        C  0.51490692  0.13849024  0.95842137     0.09100
C552        C  0.99445418  0.13767360  0.92728433    -0.17600
C553        C  0.93043895  0.93870202  0.83341065    -0.16800
C554        C  0.92768297  0.97225555  0.82715919     0.07300
C555        C  0.92833050  0.01204034  0.82432429     0.09100
C556        C  0.93249152  0.04569783  0.82793103    -0.17600
C557        C  0.96790381  0.15499801  0.77041940    -0.14700
C558        C  0.98274550  0.18848148  0.76905337    -0.29900
H559        H  0.95792465  0.13975538  0.74150307     0.14300
H560        H  0.49410910  0.20181336  0.79733601     0.14900
C561        C  0.55907222  0.16120055  0.18485952    -0.14700
C562        C  0.57133910  0.15607356  0.22613116    -0.29900
H563        H  0.53889604  0.18101407  0.17574888     0.14300
H564        H  0.59044110  0.13537054  0.23681574     0.14900
C565        C  0.51222302  0.20041341  0.54491940    -0.16800
C566        C  0.51626245  0.19512185  0.50964350     0.07300
C567        C  0.52220092  0.19423902  0.46839314     0.09100
C568        C  0.52704981  0.19761610  0.43324988    -0.17600
C569        C  0.60552710  0.66823480  0.31333789    -0.14700
C570        C  0.63116916  0.67182632  0.34566153    -0.29900
H571        H  0.60445123  0.64555900  0.29051054     0.14300
H572        H  0.63047153  0.69399327  0.36882654     0.14900
C573        C  0.60492625  0.31015125  0.33144096    -0.14700
C574        C  0.63635242  0.30596294  0.35198093    -0.29900
H575        H  0.59643189  0.33691531  0.31693367     0.14300
H576        H  0.64476048  0.27844828  0.36461459     0.14900
C577        C  0.67477952  0.43916692  0.33847258    -0.16800
C578        C  0.66969784  0.47254565  0.33272174     0.07300
C579        C  0.66755398  0.51236252  0.32978512     0.09100
C580        C  0.67070074  0.54621331  0.33286324    -0.17600
C581        C  0.60576881  0.74551060  0.71999954    -0.16800
C582        C  0.63450852  0.74321950  0.73571153     0.07300
C583        C  0.66811186  0.73979485  0.75419112     0.09100
C584        C  0.69673867  0.73607437  0.76994206    -0.17600
C585        C  0.85913416  0.80982649  0.83612630    -0.14700
C586        C  0.89121804  0.80602883  0.85306043    -0.29900
H587        H  0.84947149  0.83640925  0.82237675     0.14300
H588        H  0.90054878  0.77863762  0.86502497     0.14900
C589        C  0.84643605  0.73397410  0.20235750    -0.16800
C590        C  0.87548816  0.73477877  0.21613964     0.07300
C591        C  0.90933973  0.73523489  0.23334822     0.09100
C592        C  0.93805811  0.73643328  0.24910735    -0.17600
C593        C  0.67953218  0.81242979  0.13662713    -0.14700
C594        C  0.64702861  0.80673419  0.12505063    -0.29900
H595        H  0.68917650  0.84059316  0.14379594     0.14300
H596        H  0.63810488  0.77811564  0.11840665     0.14900
C597        C  0.72685166  0.68046300  0.26721628    -0.14700
C598        C  0.70835026  0.65008998  0.27067322    -0.29900
H599        H  0.73809344  0.69604451  0.29539925     0.14300
H600        H  0.69500387  0.63589901  0.24260476     0.14900
C601        C  0.75767736  0.68384800  0.04428805    -0.16800
C602        C  0.76451599  0.67806088  0.01044141     0.07300
C603        C  0.77331335  0.67819587  0.97063129     0.09100
C604        C  0.78015802  0.68374245  0.93680490    -0.17600
C605        C  0.79517715  0.63712707  0.53712742    -0.16800
C606        C  0.77807408  0.63823386  0.50245534     0.07300
C607        C  0.75810448  0.63758757  0.46185742     0.09100
C608        C  0.73997063  0.63518149  0.42796041    -0.17600
C609        C  0.81188099  0.66193830  0.69069462    -0.14700
C610        C  0.82844075  0.65955749  0.73075693    -0.29900
H611        H  0.78907191  0.67787471  0.68426398     0.14300
H612        H  0.85058783  0.64271512  0.73912200     0.14900
C613        C  0.89808907  0.67999158  0.62879921    -0.14700
C614        C  0.92508195  0.67361817  0.65838825    -0.29900
H615        H  0.89773891  0.70406716  0.60795331     0.14300
H616        H  0.92715267  0.64872125  0.67819389     0.14900
C617        C  0.73768103  0.34550217  0.43653014    -0.16800
C618        C  0.75754314  0.34269908  0.46957387     0.07300
C619        C  0.78100578  0.34434964  0.50846208     0.09100
C620        C  0.80063643  0.34954976  0.54130873    -0.17600
C621        C  0.90335467  0.31558219  0.62522664    -0.14700
C622        C  0.93541789  0.32235453  0.64058318    -0.29900
H623        H  0.89544954  0.28681233  0.61703306     0.14300
H624        H  0.94392185  0.35057004  0.64996376     0.14900
C625        C  0.85938830  0.44694866  0.63907373    -0.16800
C626        C  0.86311922  0.48053057  0.64512395     0.07300
C627        C  0.86405791  0.52046822  0.64793205     0.09100
C628        C  0.86039644  0.55422102  0.64373658    -0.17600
C629        C  0.60772462  0.23982330  0.70866631    -0.16800
C630        C  0.63672097  0.23932690  0.72328268     0.07300
C631        C  0.67053042  0.23907419  0.74130939     0.09100
C632        C  0.69920887  0.24088551  0.75742741    -0.17600
C633        C  0.87911251  0.19890877  0.84877201    -0.14700
C634        C  0.88466655  0.16465868  0.83348289    -0.29900
H635        H  0.89839801  0.21303229  0.87095734     0.14300
H636        H  0.86622891  0.15175826  0.80901791     0.14900
C637        C  0.81837276  0.33400856  0.72609876    -0.14700
C638        C  0.81929840  0.32380927  0.68620691    -0.29900
H639        H  0.82471272  0.36240838  0.73728708     0.14300
H640        H  0.81339847  0.29493412  0.67606344     0.14900
C641        C  0.84626040  0.23285476  0.22096666    -0.16800
C642        C  0.87537965  0.23120310  0.23523335     0.07300
C643        C  0.90972155  0.23186930  0.25087137     0.09100
C644        C  0.93902433  0.23258267  0.26404060    -0.17600
C645        C  0.65558666  0.16362854  0.14385597    -0.14700
C646        C  0.66384288  0.19693745  0.12909226    -0.29900
H647        H  0.67184908  0.15026277  0.17028141     0.14300
H648        H  0.64633067  0.21145313  0.10486384     0.14900
C649        C  0.72596313  0.32930805  0.25424820    -0.14700
C650        C  0.72066538  0.31808730  0.29198563    -0.29900
H651        H  0.72283717  0.35866589  0.24467517     0.14300
H652        H  0.72414644  0.28846553  0.30064430     0.14900
C653        C  0.76531369  0.27407388  0.04678660    -0.16800
C654        C  0.76993643  0.27732422  0.01143624     0.07300
C655        C  0.77537786  0.27880407  0.96983896     0.09100
C656        C  0.77976606  0.27761257  0.93421720    -0.17600
loop_ 
_geom_bond_atom_site_label_1 
_geom_bond_atom_site_label_2 
_geom_bond_distance 
_geom_bond_site_symmetry_2 
_ccdc_geom_bond_type 
In1           O3   2.257       .  S
In1           O4   2.255       .  S
In1          O12   2.236       .  S
In1           O6   2.266       .  S
In1           O8   2.280       .  S
In1           O9   2.252       .  S
In1          O10   2.230       .  S
In1          O13   2.238       .  S
C2            O8   1.266       .  A
C2           O10   1.258       .  A
C2          C318   1.478       .  S
O3           C11   1.261       .  A
O4           C11   1.263       .  A
C5           O12   1.259       .  A
C5            O6   1.266       .  A
C5          C313   1.444       .  S
C7            O9   1.265       .  A
C7           O13   1.262       .  A
C7          C325   1.440       .  S
C11         C321   1.481       .  S
In14         O16   2.252       .  S
In14         O17   2.244       .  S
In14         O25   2.235       .  S
In14         O19   2.262       .  S
In14         O21   2.274       .  S
In14         O22   2.258       .  S
In14         O23   2.227       .  S
In14         O26   2.244       .  S
C15          O21   1.267       .  A
C15          O23   1.259       .  A
C15         C305   1.477       .  S
O16          C24   1.262       .  A
O17          C24   1.264       .  A
C18          O25   1.259       .  A
C18          O19   1.266       .  A
C18         C304   1.442       .  S
C20          O22   1.264       .  A
C20          O26   1.261       .  A
C20         C328   1.441       .  S
C24         C309   1.477       .  S
C27          C28   1.529       .  S
C27          C33   1.529       .  S
C27          C31   1.527       .  S
C27         C297   1.470       .  S
C28          H35   1.086       .  S
C28          C29   1.371       .  D
C29          C30   1.549       .  S
C29         C310   1.495       .  S
C30          C34   1.554       .  S
C30          C32   1.550       .  S
C30          H36   1.111       .  S
C31          H37   1.083       .  S
C31          C32   1.371       .  D
C32         C293   1.495       .  S
C33          H38   1.088       .  S
C33          C34   1.363       .  D
C34         C292   1.462       .  S
C39          C40   1.528       .  S
C39          C45   1.521       .  S
C39          C43   1.521       .  S
C39         C277   1.460       .  S
C40          H47   1.086       .  S
C40          C41   1.372       .  D
C41          C42   1.547       .  S
C41         C281   1.490       .  S
C42          C46   1.545       .  S
C42          C44   1.553       .  S
C42          H48   1.110       .  S
C43          H49   1.087       .  S
C43          C44   1.363       .  D
C44         C285   1.480       .  S
C45          H50   1.088       .  S
C45          C46   1.359       .  D
C46         C300   1.440       .  S
In51         O53   2.249       .  S
In51         O54   2.251       .  S
In51         O62   2.242       .  S
In51         O56   2.269       .  S
In51         O58   2.273       .  S
In51         O59   2.260       .  S
In51         O60   2.235       .  S
In51         O63   2.272       .  S
C52          O58   1.262       .  A
C52          O60   1.259       .  A
C52         C269   1.480       .  S
O53          C61   1.260       .  A
O54          C61   1.262       .  A
C55          O62   1.258       .  A
C55          O56   1.261       .  A
C55         C273   1.441       .  S
C57          O59   1.260       .  A
C57          O63   1.262       .  A
C57         C265   1.485       .  S
C61         C261   1.439       .  S
In64         O66   2.245       .  S
In64         O67   2.255       .  S
In64         O75   2.228       .  S
In64         O69   2.281       .  S
In64         O71   2.278       .  S
In64         O72   2.245       .  S
In64         O73   2.219       .  S
In64         O76   2.261       .  S
C65          O71   1.266       .  A
C65          O73   1.258       .  A
C65         C282   1.474       .  S
O66          C74   1.260       .  A
O67          C74   1.262       .  A
C68          O75   1.256       .  A
C68          O69   1.263       .  A
C68         C276   1.440       .  S
C70          O72   1.260       .  A
C70          O76   1.262       .  A
C70         C257   1.478       .  S
C74         C256   1.438       .  S
C77          C78   1.533       .  S
C77          C83   1.532       .  S
C77          C81   1.535       .  S
C77         C249   1.477       .  S
C78          H85   1.086       .  S
C78          C79   1.371       .  D
C79          C80   1.547       .  S
C79         C322   1.495       .  S
C80          C84   1.551       .  S
C80          C82   1.549       .  S
C80          H86   1.111       .  S
C81          H87   1.084       .  S
C81          C82   1.372       .  D
C82         C246   1.497       .  S
C83          H88   1.088       .  S
C83          C84   1.362       .  D
C84         C289   1.463       .  S
C89          C90   1.528       .  S
C89          C95   1.522       .  S
C89          C93   1.522       .  S
C89         C280   1.461       .  S
C90          H97   1.087       .  S
C90          C91   1.368       .  D
C91          C92   1.552       .  S
C91         C270   1.486       .  S
C92          C96   1.549       .  S
C92          C94   1.552       .  S
C92          H98   1.107       .  S
C93          H99   1.087       .  S
C93          C94   1.363       .  D
C94         C242   1.481       .  S
C95         H100   1.087       .  S
C95          C96   1.360       .  D
C96         C252   1.446       .  S
In101       O112   2.235       .  S
In101       O106   2.256       .  S
In101       O108   2.269       .  S
In101       O109   2.259       .  S
In101       O110   2.240       .  S
In101       O113   2.263       .  S
In101       O431   2.246   1_455  S
In101       O432   2.262   1_455  S
C102        O108   1.261       .  A
C102        O110   1.260       .  A
C102        C234   1.481       .  S
O103       In429   2.254       .  S
O103        C111   1.260       .  A
O104       In429   2.263       .  S
O104        C111   1.262       .  A
C105        O112   1.259       .  A
C105        O106   1.262       .  A
C105        C240   1.436       .  S
C107        O109   1.263       .  A
C107        O113   1.260       .  A
C107        C245   1.484       .  S
C111        C316   1.445       .  S
In114       O116   2.248       .  S
In114       O117   2.257       .  S
In114       O125   2.218       .  S
In114       O119   2.255   1_455  S
In114       O449   2.268   1_455  S
In114       O450   2.247   1_455  S
In114       O451   2.221       .  S
In114       O454   2.253   1_455  S
C115        O121   1.264       .  A
C115        O123   1.259       .  A
C115        C230   1.468       .  S
O116        C124   1.261       .  A
O117        C124   1.264       .  A
C118        O125   1.259       .  A
C118        O119   1.265   1_455  A
C118        C237   1.434       .  S
C120        O122   1.263       .  A
C120        O126   1.262       .  A
C120        C294   1.475       .  S
O121       In442   2.258       .  S
O122       In442   2.242       .  S
O123       In442   2.222       .  S
C124        C301   1.443       .  S
O126       In442   2.251       .  S
C127        C128   1.527       .  S
C127        C133   1.525       .  S
C127        C131   1.536       .  S
C127        C224   1.472       .  S
C128        H463   1.086       .  S
C128        C129   1.369       .  D
C129        C130   1.542       .  S
C129        C229   1.483       .  S
C130        C134   1.541       .  S
C130        C132   1.541       .  S
C130        H136   1.111       .  S
C131        H137   1.085       .  S
C131        C132   1.374       .  D
C132        C306   1.489       .  S
C133        H138   1.087       .  S
C133        C134   1.360       .  D
C134        C228   1.441       .  S
H135        C456   1.086   1_455  S
C139        C140   1.529       .  S
C139        C145   1.529       .  S
C139        C143   1.533       .  S
C139        C225   1.470       .  S
C140        H147   1.085       .  S
C140        C141   1.368       .  D
C141        C142   1.548       .  S
C141        C218   1.494       .  S
C142        C146   1.545       .  S
C142        C144   1.546       .  S
C142        H148   1.111       .  S
C143        H149   1.085       .  S
C143        C144   1.374       .  D
C144        C258   1.493       .  S
C145        H150   1.088       .  S
C145        C146   1.361       .  D
C146        C213   1.451       .  S
In151       O153   2.245       .  S
In151       O154   2.250       .  S
In151       O158   2.260       .  S
In151       O159   2.262       .  S
In151       O160   2.233       .  S
In151       O163   2.251       .  S
In151       O490   2.230   1_455  S
In151       O484   2.248   1_455  S
C152        O158   1.262       .  A
C152        O160   1.262       .  A
C152        C241   1.478       .  S
O153        C161   1.260       .  A
O154        C161   1.263       .  A
C155        O162   1.259       .  A
C155        O156   1.260       .  A
C155        C264   1.437       .  S
O156       In479   2.253       .  S
C157        O159   1.263       .  A
C157        O163   1.260       .  A
C157        C212   1.445       .  S
C161        C205   1.475       .  S
O162       In479   2.245       .  S
In164       O166   2.239   1_455  S
In164       O175   2.241       .  S
In164       O169   2.251       .  S
In164       O172   2.266   1_455  S
In164       O176   2.253       .  S
In164       O495   2.252   1_455  S
In164       O499   2.264   1_455  S
In164       O501   2.226   1_455  S
C165        O171   1.261       .  A
C165        O173   1.262       .  A
C165        C286   1.477       .  S
O166        C502   1.259       .  A
O167       In492   2.262       .  S
O167        C174   1.263       .  A
C168        O175   1.259       .  A
C168        O169   1.261       .  A
C168        C253   1.437       .  S
C170        O172   1.262   1_455  A
C170        O176   1.260       .  A
C170        C209   1.445       .  S
O171       In492   2.262       .  S
O173       In492   2.226       .  S
C174        O494   1.259       .  A
C174        C217   1.479       .  S
C177        C178   1.527       .  S
C177        C183   1.525       .  S
C177        C181   1.532       .  S
C177        C221   1.470       .  S
C178        H185   1.087       .  S
C178        C179   1.366       .  D
C179        C180   1.552       .  S
C179        C233   1.488       .  S
C180        C184   1.549       .  S
C180        C182   1.546       .  S
C180        H186   1.109       .  S
C181        H187   1.085       .  S
C181        C182   1.373       .  D
C182        C317   1.492       .  S
C183        H188   1.087       .  S
C183        C184   1.361       .  D
C184        C201   1.450       .  S
C189        C190   1.533       .  S
C189        C195   1.531       .  S
C189        C193   1.541       .  S
C189        C204   1.479       .  S
C190        H197   1.085       .  S
C190        C191   1.371       .  D
C191        C192   1.542       .  S
C191        C206   1.489       .  S
C192        C196   1.541       .  S
C192        C194   1.542       .  S
C192        H198   1.111       .  S
C193        H199   1.085       .  S
C193        C194   1.376       .  D
C194        C266   1.496       .  S
C195        H200   1.089       .  S
C195        C196   1.361       .  D
C196        C216   1.450       .  S
C201        C202   1.211       .  T
C202        C203   1.421   1_545  S
C203        C204   1.212       .  T
C205        H207   1.083       .  S
C205        C206   1.348       .  D
C206        H208   1.085       .  S
C209        C210   1.211       .  T
C210        C211   1.421       .  S
C211        C212   1.211       .  T
C213        C542   1.212       .  T
C214        C541   1.211   1_455  T
C214        C215   1.420   1_556  S
C215        C216   1.211       .  T
C217        H219   1.082       .  S
C217        C218   1.352       .  D
C218        H220   1.085       .  S
C221        C222   1.207       .  T
C222        C223   1.413   1_554  S
C223        C552   1.207   1_455  T
C224        C551   1.208       .  T
C225        C226   1.206       .  T
C226        C227   1.412   1_565  S
C227        C228   1.206       .  T
C229        H231   1.085       .  S
C229        C230   1.344       .  D
C230        H560   1.086       .  S
H232        C558   1.087       .  S
C233        H235   1.088       .  S
C233        C234   1.344       .  D
C234        H236   1.084       .  S
C237        C238   1.205       .  T
C238        C239   1.412       .  S
C239        C240   1.206       .  T
C241        H243   1.084       .  S
C241        C242   1.340       .  D
C242        H244   1.088       .  S
C245        H247   1.083       .  S
C245        C246   1.352       .  D
C246        H248   1.085       .  S
C249        C250   1.210       .  T
C250        C251   1.419       .  S
C251        C252   1.209       .  T
C253        C254   1.207       .  T
C254        C255   1.415       .  S
C255        C256   1.207       .  T
C257        H259   1.084       .  S
C257        C258   1.347       .  D
C258        H260   1.087       .  S
C261        C262   1.207       .  T
C262        C263   1.415       .  S
C263        C264   1.207       .  T
C265        H267   1.086       .  S
C265        C266   1.348       .  D
C266        H268   1.087       .  S
C269        H271   1.084       .  S
C269        C270   1.344       .  D
C270        H272   1.088       .  S
C273        C274   1.209       .  T
C274        C275   1.417   1_554  S
C275        C276   1.209       .  T
C277        C278   1.201       .  T
C278        C279   1.404       .  S
C279        C280   1.201       .  T
C281        H283   1.086       .  S
C281        C282   1.345       .  D
C282        H284   1.086       .  S
C285        H287   1.087       .  S
C285        C286   1.340       .  D
C286        H288   1.083       .  S
C289        C290   1.219       .  T
C290        C291   1.433       .  S
C291        C292   1.219       .  T
C293        H295   1.085       .  S
C293        C294   1.351       .  D
C294        H296   1.082       .  S
C297        C298   1.206       .  T
C298        C299   1.412       .  S
C299        C300   1.206       .  T
C301        C302   1.210       .  T
C302        C303   1.419       .  S
C303        C304   1.210       .  T
C305        H307   1.085       .  S
C305        C306   1.344       .  D
C306        H308   1.085       .  S
C309        H311   1.082       .  S
C309        C310   1.351       .  D
C310        H312   1.085       .  S
C313        C314   1.211       .  T
C314        C315   1.421       .  S
C315        C316   1.211       .  T
C317        H319   1.086       .  S
C317        C318   1.346       .  D
C318        H320   1.086       .  S
C321        H323   1.082       .  S
C321        C322   1.351       .  D
C322        H324   1.085       .  S
C325        C326   1.209       .  T
C326        C327   1.417   1_554  S
C327        C328   1.209       .  T
In329       O331   2.254       .  S
In329       O332   2.246       .  S
In329       O340   2.230       .  S
In329       O334   2.269       .  S
In329       O336   2.281       .  S
In329       O337   2.254       .  S
In329       O338   2.222       .  S
In329       O341   2.243       .  S
C330        O336   1.267       .  A
C330        O338   1.258       .  A
C330        C646   1.476       .  S
O331        C339   1.262       .  A
O332        C339   1.262       .  A
C333        O340   1.258       .  A
C333        O334   1.265       .  A
C333        C641   1.441       .  S
C335        O337   1.263       .  A
C335        O341   1.261       .  A
C335        C653   1.439       .  S
C339        C649   1.478       .  S
In342       O344   2.255       .  S
In342       O345   2.242       .  S
In342       O353   2.226       .  S
In342       O347   2.255       .  S
In342       O349   2.266       .  S
In342       O350   2.255       .  S
In342       O351   2.224       .  S
In342       O354   2.235       .  S
C343        O349   1.265       .  A
C343        O351   1.259       .  A
C343        C633   1.473       .  S
O344        C352   1.261       .  A
O345        C352   1.262       .  A
C346        O353   1.258       .  A
C346        O347   1.264       .  A
C346        C632   1.435       .  S
C348        O350   1.264       .  A
C348        O354   1.260       .  A
C348        C656   1.438       .  S
C352        C637   1.475       .  S
C355        C356   1.529       .  S
C355        C361   1.530       .  S
C355        C359   1.530       .  S
C355        C625   1.472       .  S
C356        H363   1.085       .  S
C356        C357   1.370       .  D
C357        C358   1.547       .  S
C357        C638   1.494       .  S
C358        C362   1.551       .  S
C358        C360   1.548       .  S
C358        H364   1.111       .  S
C359        H365   1.084       .  S
C359        C360   1.372       .  D
C360        C621   1.494       .  S
C361        H366   1.088       .  S
C361        C362   1.363       .  D
C362        C620   1.459       .  S
C367        C368   1.526       .  S
C367        C373   1.522       .  S
C367        C371   1.522       .  S
C367        C605   1.462       .  S
C368        H375   1.086       .  S
C368        C369   1.368       .  D
C369        C370   1.552       .  S
C369        C609   1.483       .  S
C370        C374   1.547       .  S
C370        C372   1.551       .  S
C370        H376   1.108       .  S
C371        H377   1.087       .  S
C371        C372   1.363       .  D
C372        C613   1.479       .  S
C373        H378   1.087       .  S
C373        C374   1.361       .  D
C374        C628   1.442       .  S
In379       O381   2.235       .  S
In379       O382   2.246       .  S
In379       O390   2.227       .  S
In379       O384   2.267       .  S
In379       O386   2.279       .  S
In379       O387   2.242       .  S
In379       O388   2.216       .  S
In379       O391   2.263       .  S
C380        O386   1.266       .  A
C380        O388   1.257       .  A
C380        C597   1.472       .  S
O381        C389   1.259       .  A
O382        C389   1.262       .  A
C383        O390   1.258       .  A
C383        O384   1.263       .  A
C383        C601   1.437       .  S
C385        O387   1.260       .  A
C385        O391   1.264       .  A
C385        C593   1.479       .  S
C389        C589   1.432       .  S
In392       O394   2.246       .  S
In392       O395   2.249       .  S
In392       O403   2.240       .  S
In392       O397   2.263       .  S
In392       O399   2.275       .  S
In392       O400   2.244       .  S
In392       O401   2.226       .  S
In392       O404   2.260       .  S
C393        O399   1.261       .  A
C393        O401   1.258       .  A
C393        C610   1.479       .  S
O394        C402   1.260       .  A
O395        C402   1.260       .  A
C396        O403   1.258       .  A
C396        O397   1.260       .  A
C396        C604   1.437       .  S
C398        O400   1.259       .  A
C398        O404   1.262       .  A
C398        C585   1.475       .  S
C402        C584   1.436       .  S
C405        C406   1.531       .  S
C405        C411   1.529       .  S
C405        C409   1.529       .  S
C405        C577   1.470       .  S
C406        H413   1.085       .  S
C406        C407   1.371       .  D
C407        C408   1.548       .  S
C407        C650   1.495       .  S
C408        C412   1.552       .  S
C408        C410   1.549       .  S
C408        H414   1.111       .  S
C409        H415   1.085       .  S
C409        C410   1.370       .  D
C410        C574   1.494       .  S
C411        H416   1.088       .  S
C411        C412   1.362       .  D
C412        C617   1.459       .  S
C417        C418   1.529       .  S
C417        C423   1.522       .  S
C417        C421   1.524       .  S
C417        C608   1.463       .  S
C418        H425   1.086       .  S
C418        C419   1.373       .  D
C419        C420   1.543       .  S
C419        C598   1.488       .  S
C420        C424   1.544       .  S
C420        C422   1.550       .  S
C420        H426   1.109       .  S
C421        H427   1.087       .  S
C421        C422   1.365       .  D
C422        C570   1.482       .  S
C423        H428   1.088       .  S
C423        C424   1.359       .  D
C424        C580   1.440       .  S
In429       O440   2.235       .  S
In429       O434   2.255       .  S
In429       O436   2.272       .  S
In429       O437   2.259       .  S
In429       O438   2.238       .  S
In429       O441   2.263       .  S
C430        O436   1.261       .  A
C430        O438   1.260       .  A
C430        C562   1.481       .  S
O431        C439   1.260       .  A
O432        C439   1.264       .  A
C433        O440   1.259       .  A
C433        O434   1.261       .  A
C433        C568   1.434       .  S
C435        O437   1.261       .  A
C435        O441   1.260       .  A
C435        C573   1.480       .  S
C439        C644   1.443       .  S
In442       O444   2.238       .  S
In442       O445   2.254       .  S
In442       O453   2.221       .  S
In442       O447   2.252       .  S
C443        O449   1.266       .  A
C443        O451   1.259   1_655  A
C443        C558   1.471       .  S
O444        C452   1.259       .  A
O445        C452   1.263       .  A
C446        O453   1.259       .  A
C446        O447   1.264       .  A
C446        C565   1.433       .  S
C448        O450   1.263       .  A
C448        O454   1.261       .  A
C448        C622   1.477       .  S
C452        C629   1.436       .  S
C455        C456   1.530       .  S
C455        C461   1.525       .  S
C455        C459   1.533       .  S
C455        C552   1.470       .  S
C456        C457   1.371       .  D
C457        C458   1.540       .  S
C457        C557   1.484       .  S
C458        C462   1.540       .  S
C458        C460   1.541       .  S
C458        H464   1.111       .  S
C459        H465   1.086       .  S
C459        C460   1.373       .  D
C460        C634   1.487       .  S
C461        H466   1.087       .  S
C461        C462   1.359       .  D
C462        C556   1.439       .  S
C467        C468   1.527       .  S
C467        C473   1.529       .  S
C467        C471   1.534       .  S
C467        C553   1.467       .  S
C468        H475   1.086       .  S
C468        C469   1.368       .  D
C469        C470   1.545       .  S
C469        C546   1.487       .  S
C470        C474   1.543       .  S
C470        C472   1.542       .  S
C470        H476   1.111       .  S
C471        H477   1.084       .  S
C471        C472   1.373       .  D
C472        C586   1.489       .  S
C473        H478   1.088       .  S
C473        C474   1.361       .  D
C474        C541   1.449       .  S
In479       O481   2.257       .  S
In479       O482   2.252       .  S
In479       O486   2.264       .  S
In479       O487   2.265       .  S
In479       O488   2.233       .  S
In479       O491   2.255       .  S
C480        O486   1.260       .  A
C480        O488   1.260       .  A
C480        C569   1.476       .  S
O481        C489   1.260       .  A
O482        C489   1.260       .  A
C483        O490   1.258       .  A
C483        O484   1.262       .  A
C483        C592   1.431       .  S
C485        O487   1.261       .  A
C485        O491   1.260       .  A
C485        C540   1.446       .  S
C489        C533   1.476       .  S
In492       O494   2.251       .  S
In492       O503   2.243       .  S
In492       O497   2.242       .  S
In492       O500   2.271       .  S
In492       O504   2.251       .  S
C493        O499   1.261       .  A
C493        O501   1.261       .  A
C493        C614   1.478       .  S
O495        C502   1.263       .  A
C496        O503   1.260       .  A
C496        O497   1.261       .  A
C496        C581   1.435       .  S
C498        O500   1.264       .  A
C498        O504   1.260       .  A
C498        C537   1.447       .  S
C502        C545   1.473       .  S
C505        C506   1.528       .  S
C505        C511   1.525       .  S
C505        C509   1.531       .  S
C505        C549   1.472       .  S
C506        H513   1.087       .  S
C506        C507   1.367       .  D
C507        C508   1.550       .  S
C507        C561   1.486       .  S
C508        C512   1.545       .  S
C508        C510   1.546       .  S
C508        H514   1.109       .  S
C509        H515   1.085       .  S
C509        C510   1.374       .  D
C510        C645   1.492       .  S
C511        H516   1.087       .  S
C511        C512   1.361       .  D
C512        C529   1.445       .  S
C517        C518   1.532       .  S
C517        C523   1.530       .  S
C517        C521   1.536       .  S
C517        C532   1.474       .  S
C518        H525   1.086       .  S
C518        C519   1.370       .  D
C519        C520   1.543       .  S
C519        C534   1.490       .  S
C520        C524   1.542       .  S
C520        C522   1.544       .  S
C520        H526   1.111       .  S
C521        H527   1.084       .  S
C521        C522   1.375       .  D
C522        C594   1.494       .  S
C523        H528   1.088       .  S
C523        C524   1.361       .  D
C524        C544   1.451       .  S
C529        C530   1.209       .  T
C530        C531   1.417   1_545  S
C531        C532   1.209       .  T
C533        H535   1.084       .  S
C533        C534   1.348       .  D
C534        H536   1.086       .  S
C537        C538   1.213       .  T
C538        C539   1.423       .  S
C539        C540   1.212       .  T
C542        C543   1.422   1_556  S
C543        C544   1.212       .  T
C545        H547   1.084       .  S
C545        C546   1.349       .  D
C546        H548   1.086       .  S
C549        C550   1.208   1_554  T
C550        C551   1.415       .  S
C553        C554   1.205       .  T
C554        C555   1.410   1_565  S
C555        C556   1.205       .  T
C557        H559   1.086       .  S
C557        C558   1.343       .  D
C561        H563   1.087       .  S
C561        C562   1.344       .  D
C562        H564   1.084       .  S
C565        C566   1.205       .  T
C566        C567   1.411       .  S
C567        C568   1.205       .  T
C569        H571   1.084       .  S
C569        C570   1.341       .  D
C570        H572   1.088       .  S
C573        H575   1.084       .  S
C573        C574   1.351       .  D
C574        H576   1.086       .  S
C577        C578   1.206       .  T
C578        C579   1.412       .  S
C579        C580   1.206       .  T
C581        C582   1.206       .  T
C582        C583   1.412       .  S
C583        C584   1.206       .  T
C585        H587   1.082       .  S
C585        C586   1.345       .  D
C586        H588   1.085       .  S
C589        C590   1.203       .  T
C590        C591   1.409       .  S
C591        C592   1.203       .  T
C593        H595   1.081       .  S
C593        C594   1.347       .  D
C594        H596   1.084       .  S
C597        H599   1.086       .  S
C597        C598   1.343       .  D
C598        H600   1.086       .  S
C601        C602   1.207       .  T
C602        C603   1.414   1_554  S
C603        C604   1.207       .  T
C605        C606   1.202       .  T
C606        C607   1.406       .  S
C607        C608   1.202       .  T
C609        H611   1.088       .  S
C609        C610   1.343       .  D
C610        H612   1.085       .  S
C613        H615   1.087       .  S
C613        C614   1.340       .  D
C614        H616   1.084       .  S
C617        C618   1.217       .  T
C618        C619   1.430       .  S
C619        C620   1.217       .  T
C621        H623   1.085       .  S
C621        C622   1.350       .  D
C622        H624   1.081       .  S
C625        C626   1.208       .  T
C626        C627   1.414       .  S
C627        C628   1.207       .  T
C629        C630   1.206       .  T
C630        C631   1.412       .  S
C631        C632   1.205       .  T
C633        H635   1.085       .  S
C633        C634   1.344       .  D
C634        H636   1.085       .  S
C637        H639   1.081       .  S
C637        C638   1.350       .  D
C638        H640   1.084       .  S
C641        C642   1.210       .  T
C642        C643   1.419       .  S
C643        C644   1.210       .  T
C645        H647   1.086       .  S
C645        C646   1.345       .  D
C646        H648   1.086       .  S
C649        H651   1.084       .  S
C649        C650   1.350       .  D
C650        H652   1.087       .  S
C653        C654   1.208       .  T
C654        C655   1.415   1_554  S
C655        C656   1.208       .  T
