geometry optimzed in LAMMPS
_audit_creation_date              2020-12-01 
_audit_creation_method            'lammps2cif' 
_symmetry_space_group_name_H-M    'P1' 
_symmetry_Int_Tables_number       1 
_symmetry_cell_setting            triclinic 
loop_ 
_symmetry_equiv_pos_as_xyz 
  x,y,z 
_cell_length_a                    35.98964661 
_cell_length_b                    35.98758892705678 
_cell_length_c                    34.54229182041926 
_cell_angle_alpha                 89.96663730504109 
_cell_angle_beta                  90.09025746124952 
_cell_angle_gamma                 120.58960726021495 
loop_ 
_atom_site_label 
_atom_site_type_symbol 
_atom_site_fract_x 
_atom_site_fract_y 
_atom_site_fract_z 
_atom_site_charge 
C1          C  0.33568182  0.16709995  0.01592703     0.30400
C2          C  0.33366758  0.16486539  0.43638203     0.30400
C3          C  0.35870204  0.14650734  0.99640583    -0.05800
C4          C  0.29057355  0.14299287  0.99733501    -0.06600
C5          C  0.35511684  0.21108780  0.99554348    -0.06400
C6          C  0.35715393  0.14435625  0.45618605    -0.05800
C7          C  0.28909617  0.14252033  0.45689545    -0.06500
C8          C  0.35551832  0.21049331  0.45505385    -0.06400
C9          C  0.37741163  0.12212674  0.44508207    -0.31800
N10         N  0.39208737  0.11249997  0.97768416     0.14700
C11         C  0.38071332  0.12703247  0.00898315    -0.31800
H12         H  0.38677124  0.12235885  0.03879417     0.16600
C13         C  0.24592245  0.12488636  0.44689217    -0.30800
N14         N  0.22210155  0.11298957  0.47984688     0.13400
C15         C  0.24888218  0.12458757  0.01057495    -0.30800
C16         C  0.37519122  0.25329344  0.44312263    -0.31100
N17         N  0.38544863  0.27862644  0.47507741     0.13900
H18         H  0.38133368  0.26532889  0.41373932     0.16500
C19         C  0.37182845  0.25321881  0.00683114    -0.31100
H20         H  0.37474791  0.26507540  0.03608051     0.16500
H21         H  0.23851012  0.12148376  0.04038087     0.16500
H22         H  0.38114057  0.11363995  0.41587650     0.16600
H23         H  0.23275056  0.12182745  0.41814222     0.16500
C24         C  0.33361072  0.16654566  0.18642624     0.30400
C25         C  0.33338804  0.16579895  0.26594834     0.30400
C26         C  0.35621630  0.14501132  0.20598936    -0.05800
C27         C  0.35510223  0.21149118  0.20639652    -0.06600
C28         C  0.28843232  0.14370948  0.20588218    -0.06400
C29         C  0.35545343  0.14445595  0.24616188    -0.05800
C30         C  0.35475650  0.21058146  0.24686995    -0.06500
C31         C  0.28875347  0.14368489  0.24638554    -0.06400
C32         C  0.37624437  0.12370493  0.25853616    -0.31800
N33         N  0.39040656  0.11224565  0.22707691     0.14700
C34         C  0.37880459  0.12520316  0.19461590    -0.31800
H35         H  0.38607033  0.12044657  0.16527509     0.16600
C36         C  0.37174393  0.25227649  0.25963861    -0.30800
N37         N  0.38353302  0.27873008  0.22862854     0.13400
C38         C  0.37275083  0.25454281  0.19584990    -0.30800
C39         C  0.24664129  0.12497795  0.25851868    -0.31100
N40         N  0.22065166  0.11223717  0.22706776     0.13900
H41         H  0.23523337  0.12077025  0.28805258     0.16500
C42         C  0.24541495  0.12403537  0.19469654    -0.31100
H43         H  0.23292181  0.11941171  0.16551612     0.16500
H44         H  0.37704456  0.26743050  0.16684412     0.16500
H45         H  0.38147974  0.11797938  0.28828670     0.16600
H46         H  0.37459784  0.26291923  0.28935423     0.16500
C47         C  0.16697701  0.33506023  0.06327717     0.30400
C48         C  0.16514367  0.33302052  0.48386075     0.30400
C49         C  0.14350913  0.35626329  0.04342488    -0.05800
C50         C  0.21140972  0.35886097  0.04288451    -0.06600
C51         C  0.14516277  0.28996340  0.04450420    -0.06400
C52         C  0.14168868  0.35388729  0.50316867    -0.05800
C53         C  0.20967523  0.35690986  0.50265827    -0.06500
C54         C  0.14365223  0.28908906  0.50420685    -0.06400
C55         C  0.11825291  0.37218807  0.49078826    -0.31800
N56         N  0.10805269  0.38801292  0.02166462     0.14700
C57         C  0.12389184  0.37949425  0.05406319    -0.31800
H58         H  0.12158714  0.38983198  0.08291166     0.16600
C59         C  0.25112603  0.37775743  0.48902679    -0.30800
N60         N  0.27833591  0.39265871  0.01963546     0.13400
C61         C  0.25481788  0.38207296  0.05271545    -0.30800
C62         C  0.12034150  0.24665225  0.49315722    -0.31100
N63         N  0.10969864  0.22177534  0.02514927     0.13900
H64         H  0.11078241  0.23438060  0.46404878     0.16500
C65         C  0.12350433  0.24747934  0.05697825    -0.31100
H66         H  0.11791671  0.23620048  0.08663028     0.16500
H67         H  0.26855757  0.39082970  0.08142258     0.16500
H68         H  0.10976505  0.37476383  0.46125335     0.16600
H69         H  0.26101981  0.38119951  0.45902060     0.16500
C70         C  0.16491303  0.33593863  0.23386209     0.30400
C71         C  0.16455140  0.33529675  0.31338608     0.30400
C72         C  0.14331245  0.35847478  0.25340705    -0.05800
C73         C  0.14275969  0.29158683  0.25305540    -0.06600
C74         C  0.20927892  0.35881761  0.25363618    -0.06400
C75         C  0.14089099  0.35636708  0.29376911    -0.05800
C76         C  0.14241005  0.29053641  0.29339699    -0.06500
C77         C  0.20931540  0.35864135  0.29399535    -0.06400
C78         C  0.11612563  0.37425108  0.30453990    -0.31800
N79         N  0.10758916  0.39033327  0.27236080     0.14700
C80         C  0.12490143  0.38184343  0.24135121    -0.31800
H81         H  0.12342978  0.39159105  0.21203692     0.16600
C82         C  0.12155451  0.24723301  0.30370494    -0.30800
N83         N  0.11027071  0.22330378  0.27078014     0.13400
C84         C  0.12272118  0.24995540  0.23984038    -0.30800
C85         C  0.25204590  0.38084454  0.30582425    -0.31100
N86         N  0.27712918  0.39392913  0.27361920     0.13900
H87         H  0.26391874  0.38676188  0.33530781     0.16500
C88         C  0.25154954  0.38141705  0.24191466    -0.31100
H89         H  0.26337869  0.38918567  0.21251936     0.16500
H90         H  0.11822118  0.23968169  0.20988595     0.16500
H91         H  0.10510586  0.37555312  0.33333670     0.16600
H92         H  0.11469916  0.23385141  0.33261836     0.16500
O93         O  0.44519987  0.01975553  0.02611537    -0.87900
C94         C  0.43277699  0.43736925  0.43911132     0.88100
Mg95       Mg  0.49397371  0.08614967  0.02737522     1.58100
O96         O  0.47830608  0.42492691  0.02497754    -0.87600
O97         O  0.42452783  0.46344490  0.06335046    -0.75000
C98         C  0.17622672  0.09202844  0.48336658     0.93200
O99         O  0.46659597  0.04077288  0.43512544    -0.74800
O100        O  0.15785045  0.11379335  0.47762475    -0.82300
Mg101      Mg  0.40860660  0.49549235  0.47256987     1.58000
C102        C  0.08772489  0.41326889  0.01841173     0.93100
O103        O  0.34499836  0.45086639  0.00316698    -0.80600
H104        H  0.47442305  0.41210498  0.08162919    -0.05900
C105        C  0.06477277  0.99903277  0.44134128     0.88000
O106        O  0.03743595  0.07277901  0.06651431    -0.75100
O107        O  0.42569507  0.44667512  0.47161742    -0.87800
O108        O  0.04956173  0.39537044  0.00447384    -0.80600
C109        C  0.41090771  0.32462246  0.47744486     0.93200
C110        C  0.32398717  0.41251900  0.01620868     0.93100
Mg111      Mg  0.09138631  0.00559746  0.02633636     1.58000
O112        O  0.15574890  0.05316759  0.49570206    -0.80600
O113        O  0.03349094  0.45956529  0.06399151    -0.74800
O114        O  0.39298731  0.34490348  0.49022475    -0.80600
O115        O  0.39041788  0.04706010  0.47213634    -0.82400
O116        O  0.10444127  0.15639746  0.01046438    -0.80700
C117        C  0.99446562  0.43084879  0.05761741     0.87500
O118        O  0.07377916  0.05427390  0.02834562    -0.87800
O119        O  0.05439060  0.48111906  0.47327921    -0.87900
O120        O  0.07530891  0.03822604  0.43692119    -0.75000
Mg121      Mg  0.41176787  0.40768149  0.02321190     1.59000
O122        O  0.45146241  0.34310232  0.47164975    -0.82400
H123        H  0.43631686  0.02151585  0.08302883    -0.06100
O124        O  0.02063472  0.07562715  0.47517426    -0.87600
H125        H  0.02584802  0.08868723  0.41853668    -0.05900
H126        H  0.08349687  0.06054077  0.08555658    -0.06100
C127        C  0.50526317  0.06978725  0.44222190     0.87500
C128        C  0.43482170  0.50242342  0.05827045     0.88100
C129        C  0.06620646  0.06291111  0.06094756     0.88100
H130        H  0.06348522  0.48043803  0.41626335    -0.06100
O131        O  0.46135670  0.42725326  0.43357135    -0.75100
Mg132      Mg  0.08712469  0.09403984  0.47715240     1.58000
H133        H  0.41527804  0.43944725  0.41453021    -0.06100
C134        C  0.41197995  0.08694572  0.48058432     0.93100
O135        O  0.04520358  0.15654200  0.02920390    -0.82300
C136        C  0.08559625  0.17583567  0.02325404     0.93100
O137        O  0.34153672  0.39005676  0.02260579    -0.82300
Mg138      Mg  0.00475786  0.41402012  0.47279566     1.58200
O139        O  0.44943275  0.10439711  0.49570581    -0.80600
O140        O  0.10968124  0.45354071  0.02573148    -0.82300
O141        O  0.01670011  0.44609669  0.22359110    -0.87900
C142        C  0.43428687  0.43466200  0.30997312     0.88100
Mg143      Mg  0.08403692  0.49490650  0.22387569     1.58100
O144        O  0.42416401  0.48151639  0.22406131    -0.87600
O145        O  0.46043050  0.42559490  0.18619226    -0.75000
C146        C  0.08981082  0.17753631  0.26749499     0.93200
O147        O  0.03687578  0.46603289  0.31440767    -0.74800
O148        O  0.11164633  0.15937698  0.27422346    -0.82300
Mg149      Mg  0.49100850  0.40856819  0.27614641     1.58000
C150        C  0.41495296  0.09140253  0.22983801     0.93100
O151        O  0.44358383  0.34478065  0.24479024    -0.80600
H152        H  0.41244109  0.47737166  0.16717669    -0.05900
C153        C  0.99744192  0.06696993  0.30825631     0.88000
O154        O  0.07232716  0.03912750  0.18449340    -0.75100
O155        O  0.44301554  0.42695646  0.27746341    -0.87800
O156        O  0.39669235  0.05353016  0.24408270    -0.80600
C157        C  0.32306083  0.41766256  0.27118064     0.93200
C158        C  0.40489784  0.32467362  0.23193955     0.93100
Mg159      Mg  0.00583574  0.09360034  0.22303673     1.58000
O160        O  0.05153434  0.15700579  0.25410363    -0.80600
O161        O  0.46042256  0.03612792  0.18490829    -0.74800
O162        O  0.34196498  0.39842386  0.25807759    -0.80600
O163        O  0.04233320  0.38928243  0.27621807    -0.82400
O164        O  0.15504288  0.10616219  0.24250834    -0.80700
C165        C  0.43096201  0.99744742  0.19129640     0.87500
O166        O  0.05393267  0.07565938  0.22247050    -0.87800
O167        O  0.48060366  0.05662636  0.27588198    -0.87900
O168        O  0.03623513  0.07691059  0.31394456    -0.75000
Mg169      Mg  0.40442430  0.41458131  0.22564324     1.58000
O170        O  0.34291538  0.45805982  0.27739099    -0.82400
H171        H  0.01838290  0.43674639  0.16672978    -0.06100
O172        O  0.07313559  0.02146465  0.27601239    -0.87600
H173        H  0.08445838  0.02465252  0.33293811    -0.05900
H174        H  0.06172448  0.08624978  0.16545362    -0.06100
C175        C  0.06614743  0.50496454  0.30855769     0.87500
C176        C  0.49940968  0.43575349  0.19137506     0.88100
C177        C  0.06315355  0.06837702  0.19001913     0.88100
H178        H  0.47810473  0.06586133  0.33264615    -0.06100
O179        O  0.42544148  0.46416553  0.31549271    -0.75100
Mg180      Mg  0.09218959  0.08853037  0.27457638     1.58000
H181        H  0.43581409  0.41689613  0.33458066    -0.06100
C182        C  0.08268380  0.41099087  0.26931683     0.93100
O183        O  0.15533601  0.04704830  0.22343755    -0.82300
C184        C  0.17463249  0.08757004  0.22964083     0.93100
O185        O  0.38354679  0.34344425  0.22586416    -0.82300
Mg186      Mg  0.41377852  0.00853683  0.27614573     1.58200
O187        O  0.10105006  0.44924779  0.25571651    -0.80600
O188        O  0.45507819  0.11284287  0.22240376    -0.82300
C189        C  0.16716076  0.33632388  0.35755672    -0.05000
C190        C  0.17289328  0.30545179  0.37737493    -0.32500
C191        C  0.17383715  0.30451952  0.41798963     0.36800
C192        C  0.16731027  0.33403831  0.43960883    -0.05400
C193        C  0.17223900  0.37038876  0.41974206    -0.32400
C194        C  0.17266857  0.37207860  0.37919451     0.36700
H195        H  0.17880519  0.28313683  0.36143928     0.17100
O196        O  0.18631109  0.27852345  0.43604272    -0.59900
H197        H  0.17762020  0.39860155  0.43561808     0.17100
O198        O  0.18326014  0.41028475  0.36116015    -0.60000
H199        H  0.16504557  0.42063336  0.37299669     0.44100
H200        H  0.16949079  0.24954451  0.42401626     0.44000
C201        C  0.16384949  0.33336449  0.18959576    -0.05000
C202        C  0.19513215  0.32834513  0.16978406    -0.32500
C203        C  0.19617302  0.32761406  0.12917533     0.36800
C204        C  0.16605868  0.33321616  0.10749439    -0.05400
C205        C  0.12957168  0.32789658  0.12733561    -0.32400
C206        C  0.12769524  0.32684583  0.16791107     0.36700
H207        H  0.21779761  0.32289342  0.18573187     0.17100
O208        O  0.22319541  0.31651580  0.11114495    -0.59900
H209        H  0.10128847  0.32231099  0.11142507     0.17100
O210        O  0.08900613  0.31434274  0.18589492    -0.60000
H211        H  0.07714698  0.33121793  0.17392217     0.44100
H212        H  0.25194081  0.33370688  0.12356095     0.44000
C213        C  0.33433502  0.16270450  0.39221090    -0.05000
C214        C  0.37078394  0.19382121  0.37184396    -0.32500
C215        C  0.37189621  0.19399101  0.33138735     0.36800
C216        C  0.33510138  0.16411801  0.31014499    -0.05400
C217        C  0.30353535  0.12783429  0.33039102    -0.32400
C218        C  0.30322007  0.12651774  0.37104051     0.36700
H219        H  0.39934230  0.21730621  0.38726418     0.17100
O220        O  0.40989187  0.22204138  0.31321537    -0.59900
H221        H  0.27995061  0.09950949  0.31478489     0.17100
O222        O  0.27568270  0.08840351  0.38956299    -0.60000
H223        H  0.24670859  0.07739182  0.37797826     0.44100
H224        H  0.42507852  0.20574724  0.30979235     0.44000
C225        C  0.33524702  0.16534777  0.14227005    -0.05000
C226        C  0.37090533  0.19813185  0.12223857    -0.32500
C227        C  0.37293035  0.19833064  0.08161436     0.36800
C228        C  0.33763248  0.16635902  0.06019570    -0.05400
C229        C  0.30762584  0.12913045  0.08040908    -0.32400
C230        C  0.30654968  0.12806869  0.12099664     0.36700
H231        H  0.39845732  0.22263713  0.13805768     0.17100
O232        O  0.41110488  0.22639327  0.06341959    -0.59900
H233        H  0.28561746  0.10005262  0.06475884     0.17100
O234        O  0.28053876  0.08952146  0.13955814    -0.60000
H235        H  0.25149019  0.07682172  0.12763586     0.44100
H236        H  0.42200498  0.25518780  0.07539264     0.44000
C237        C  0.33578091  0.16708704  0.51591422     0.30400
C238        C  0.33365507  0.16487756  0.93639496     0.30400
C239        C  0.35864066  0.14635293  0.49635977    -0.05800
C240        C  0.29064440  0.14311242  0.49734718    -0.06600
C241        C  0.35534450  0.21108083  0.49553794    -0.06400
C242        C  0.35726896  0.14452550  0.95623351    -0.05800
C243        C  0.28905746  0.14239787  0.95688198    -0.06500
C244        C  0.35535504  0.21049893  0.95505953    -0.06400
C245        C  0.37772430  0.12248429  0.94514939    -0.31800
N246        N  0.39171918  0.11206393  0.47760748     0.14700
C247        C  0.38050667  0.12672670  0.50891572    -0.31800
H248        H  0.38659641  0.12206316  0.53871995     0.16600
C249        C  0.24587543  0.12468510  0.94686068    -0.30800
N250        N  0.22203610  0.11272826  0.97980699     0.13400
C251        C  0.24896143  0.12477813  0.51060453    -0.30800
C252        C  0.37501860  0.25329321  0.94312039    -0.31100
N253        N  0.38516490  0.27862833  0.97506407     0.13900
H254        H  0.38126447  0.26532661  0.91373715     0.16500
C255        C  0.37213824  0.25321564  0.50683984    -0.31100
H256        H  0.37507906  0.26507185  0.53609119     0.16500
H257        H  0.23860549  0.12165366  0.54041675     0.16500
H258        H  0.38152420  0.11404442  0.91594740     0.16600
H259        H  0.23271221  0.12163075  0.91810681     0.16500
C260        C  0.33357325  0.16654118  0.68642184     0.30400
C261        C  0.33339535  0.16581471  0.76595183     0.30400
C262        C  0.35618944  0.14501157  0.70597668    -0.05800
C263        C  0.35508058  0.21149139  0.70638607    -0.06600
C264        C  0.28840396  0.14371331  0.70590317    -0.06400
C265        C  0.35545168  0.14447009  0.74615000    -0.05800
C266        C  0.35474670  0.21059393  0.74686166    -0.06500
C267        C  0.28875566  0.14369357  0.74640888    -0.06400
C268        C  0.37623801  0.12371046  0.75851339    -0.31800
N269        N  0.39037802  0.11223383  0.72704948     0.14700
C270        C  0.37875583  0.12518121  0.69459312    -0.31800
H271        H  0.38598766  0.12039821  0.66524835     0.16600
C272        C  0.37178093  0.25230118  0.75961697    -0.30800
N273        N  0.38361157  0.27874783  0.72859896     0.13400
C274        C  0.37279499  0.25454693  0.69582697    -0.30800
C275        C  0.24666048  0.12499435  0.75857674    -0.31100
N276        N  0.22064565  0.11226064  0.72714715     0.13900
H277        H  0.23528023  0.12078386  0.78812011     0.16500
C278        C  0.24537533  0.12405965  0.69475491    -0.31100
H279        H  0.23284872  0.11945527  0.66558866     0.16500
H280        H  0.37711662  0.26742794  0.66681597     0.16500
H281        H  0.38147918  0.11798439  0.78826172     0.16600
H282        H  0.37464512  0.26295935  0.78932833     0.16500
C283        C  0.16679443  0.33489796  0.56335207     0.30400
C284        C  0.16531925  0.33308941  0.98377655     0.30400
C285        C  0.14356662  0.35637210  0.54353525    -0.05800
C286        C  0.21125097  0.35848270  0.54297806    -0.06600
C287        C  0.14475020  0.28982243  0.54455205    -0.06400
C288        C  0.14161719  0.35372572  0.00305982    -0.05800
C289        C  0.20984197  0.35721354  0.00256570    -0.06500
C290        C  0.14408755  0.28918557  0.00415377    -0.06400
C291        C  0.11806301  0.37190345  0.99066151    -0.31800
N292        N  0.10828784  0.38831166  0.52180178     0.14700
C293        C  0.12403989  0.37968553  0.55420040    -0.31800
H294        H  0.12168757  0.38995531  0.58306527     0.16600
C295        C  0.25129956  0.37808653  0.98894450    -0.30800
N296        N  0.27818317  0.39218588  0.51970635     0.13400
C297        C  0.25467509  0.38153793  0.55280493    -0.30800
C298        C  0.12089489  0.24673307  0.99312914    -0.31100
N299        N  0.10915378  0.22166416  0.52515612     0.13900
H300        H  0.11134258  0.23443239  0.96402694     0.16500
C301        C  0.12304880  0.24733277  0.55700147    -0.31100
H302        H  0.11756415  0.23602594  0.58664459     0.16500
H303        H  0.26842142  0.39018751  0.58151875     0.16500
H304        H  0.10959089  0.37446890  0.96111767     0.16600
H305        H  0.26121243  0.38140443  0.95895077     0.16500
C306        C  0.16478520  0.33587125  0.73384412     0.30400
C307        C  0.16452790  0.33528664  0.81334644     0.30400
C308        C  0.14321147  0.35842405  0.75340376    -0.05800
C309        C  0.14266559  0.29153147  0.75305181    -0.06600
C310        C  0.20918010  0.35876368  0.75356052    -0.06400
C311        C  0.14083441  0.35633562  0.79376310    -0.05800
C312        C  0.14237239  0.29050919  0.79338886    -0.06500
C313        C  0.20926221  0.35862260  0.79391468    -0.06400
C314        C  0.11610632  0.37424977  0.80456440    -0.31800
N315        N  0.10756959  0.39034791  0.77239896     0.14700
C316        C  0.12484123  0.38183756  0.74137371    -0.31800
H317        H  0.12337500  0.39161112  0.71206821     0.16600
C318        C  0.12158694  0.24721552  0.80371879    -0.30800
N319        N  0.11027257  0.22326263  0.77080577     0.13400
C320        C  0.12265741  0.24989336  0.73985346    -0.30800
C321        C  0.25199763  0.38080454  0.80571070    -0.31100
N322        N  0.27704998  0.39382972  0.77348915     0.13900
H323        H  0.26389650  0.38674387  0.83518579     0.16500
C324        C  0.25144111  0.38129537  0.74179895    -0.31100
H325        H  0.26323528  0.38898428  0.71238749     0.16500
H326        H  0.11813299  0.23960264  0.70990266     0.16500
H327        H  0.10512026  0.37557031  0.83337126     0.16600
H328        H  0.11480556  0.23386023  0.83264194     0.16500
O329        O  0.44497255  0.01948499  0.52602281    -0.87900
C330        C  0.43274375  0.43752210  0.93919717     0.88100
Mg331      Mg  0.49368475  0.08589243  0.52731473     1.58100
O332        O  0.47840694  0.42505341  0.52491251    -0.87600
O333        O  0.42430124  0.46325510  0.56333564    -0.75000
C334        C  0.17616782  0.09178842  0.98332785     0.93200
O335        O  0.46675655  0.04092808  0.93517350    -0.74800
O336        O  0.15783863  0.11359667  0.97762065    -0.82300
Mg337      Mg  0.40879663  0.49579877  0.97268171     1.58000
C338        C  0.08794118  0.41354193  0.51854100     0.93100
O339        O  0.34478002  0.45038138  0.50300234    -0.80600
H340        H  0.47453370  0.41215141  0.58154503    -0.05900
C341        C  0.06462350  0.99888975  0.94141464     0.88000
O342        O  0.03721073  0.07262369  0.56645537    -0.75100
O343        O  0.42575808  0.44687811  0.97171284    -0.87800
O344        O  0.04974728  0.39558876  0.50466248    -0.80600
C345        C  0.41067818  0.32462408  0.97742551     0.93200
C346        C  0.32384263  0.41209665  0.51621014     0.93100
Mg347      Mg  0.09147969  0.00576231  0.52630034     1.58000
O348        O  0.15566091  0.05292383  0.99566217    -0.80600
O349        O  0.03359792  0.45963278  0.56391970    -0.74800
O350        O  0.39281540  0.34496401  0.99020863    -0.80600
O351        O  0.39075134  0.04747905  0.97224814    -0.82400
O352        O  0.10415927  0.15641017  0.51043707    -0.80700
C353        C  0.99456803  0.43093359  0.55754505     0.87500
O354        O  0.07372874  0.05432555  0.52829180    -0.87800
O355        O  0.05422831  0.48099214  0.97335441    -0.87900
O356        O  0.07523678  0.03810173  0.93698525    -0.75000
Mg357      Mg  0.41178578  0.40757079  0.52319727     1.59000
O358        O  0.45122539  0.34304627  0.97160995    -0.82400
H359        H  0.43584957  0.02128979  0.58288642    -0.06100
O360        O  0.02079316  0.07573165  0.97522930    -0.87600
H361        H  0.02604434  0.08876197  0.91858402    -0.05900
H362        H  0.08337291  0.06054280  0.58551157    -0.06100
C363        C  0.50543522  0.06990106  0.94227185     0.87500
C364        C  0.43450230  0.50219311  0.55818469     0.88100
C365        C  0.06607520  0.06288423  0.56089450     0.88100
H366        H  0.06327656  0.48026240  0.91634207    -0.06100
O367        O  0.46122187  0.42727955  0.93362582    -0.75100
Mg368      Mg  0.08720641  0.09397788  0.97719177     1.58000
H369        H  0.41524641  0.43965308  0.91464071    -0.06100
C370        C  0.41234126  0.08737018  0.98067025     0.93100
O371        O  0.04479218  0.15631331  0.52917162    -0.82300
C372        C  0.08518942  0.17572689  0.52322883     0.93100
O373        O  0.34147201  0.38972440  0.52269568    -0.82300
Mg374      Mg  0.00457984  0.41392410  0.97278841     1.58200
O375        O  0.44980877  0.10480646  0.99576285    -0.80600
O376        O  0.10992068  0.45383974  0.52572724    -0.82300
O377        O  0.01673217  0.44613886  0.72357820    -0.87900
C378        C  0.43420907  0.43460134  0.80987975     0.88100
Mg379      Mg  0.08406980  0.49493649  0.72391452     1.58100
O380        O  0.42404696  0.48146834  0.72396555    -0.87600
O381        O  0.46045892  0.42565564  0.68617198    -0.75000
C382        C  0.08980057  0.17749125  0.76754346     0.93200
O383        O  0.03679857  0.46599777  0.81445430    -0.74800
O384        O  0.11162346  0.15932694  0.77430492    -0.82300
Mg385      Mg  0.49100551  0.40858348  0.77611801     1.58000
C386        C  0.41490270  0.09136356  0.72980715     0.93100
O387        O  0.44369406  0.34481514  0.74467953    -0.80600
H388        H  0.41247251  0.47739891  0.66705422    -0.05900
C389        C  0.99732706  0.06689279  0.80824893     0.88000
O390        O  0.07244926  0.03921392  0.68453801    -0.75100
O391        O  0.44301005  0.42697203  0.77737456    -0.87800
O392        O  0.39662259  0.05349464  0.74405859    -0.80600
C393        C  0.32297977  0.41757712  0.77105134     0.93200
C394        C  0.40498170  0.32469280  0.73189523     0.93100
Mg395      Mg  0.00582804  0.09355332  0.72305145     1.58000
O396        O  0.05152270  0.15695964  0.75414749    -0.80600
O397        O  0.46046775  0.03610569  0.68487231    -0.74800
O398        O  0.34190927  0.39833697  0.75800986    -0.80600
O399        O  0.04233632  0.38932467  0.77628495    -0.82400
O400        O  0.15503927  0.10611831  0.74270590    -0.80700
C401        C  0.43094690  0.99743671  0.69120986     0.87500
O402        O  0.05395008  0.07563270  0.72254159    -0.87800
O403        O  0.48052282  0.05653687  0.77586218    -0.87900
O404        O  0.03612254  0.07685658  0.81397670    -0.75000
Mg405      Mg  0.40439899  0.41455566  0.72558417     1.58000
O406        O  0.34281477  0.45797848  0.77724411    -0.82400
H407        H  0.01843088  0.43687697  0.66670002    -0.06100
O408        O  0.07312529  0.02144018  0.77608985    -0.87600
H409        H  0.08439144  0.02459076  0.83302550    -0.05900
H410        H  0.06191469  0.08640029  0.66555662    -0.06100
C411        C  0.06609942  0.50492125  0.80862897     0.87500
C412        C  0.49944682  0.43583572  0.69135448     0.88100
C413        C  0.06326835  0.06845171  0.69009414     0.88100
H414        H  0.47796091  0.06578489  0.83261425    -0.06100
O415        O  0.42529805  0.46405477  0.81540958    -0.75100
Mg416      Mg  0.09214999  0.08848868  0.77468300     1.58000
H417        H  0.43571684  0.41680633  0.83447185    -0.06100
C418        C  0.08268140  0.41101934  0.76936820     0.93100
O419        O  0.15535553  0.04705959  0.72349415    -0.82300
C420        C  0.17463501  0.08756766  0.72975762     0.93100
O421        O  0.38360755  0.34344832  0.72587521    -0.82300
Mg422      Mg  0.41367587  0.00845920  0.77607490     1.58200
O423        O  0.10104624  0.44925746  0.75573184    -0.80600
O424        O  0.45503191  0.11277927  0.72237130    -0.82300
C425        C  0.16721737  0.33635702  0.85749837    -0.05000
C426        C  0.17310653  0.30557292  0.87728995    -0.32500
C427        C  0.17414943  0.30469015  0.91790019     0.36800
C428        C  0.16748462  0.33411095  0.93952826    -0.05400
C429        C  0.17228811  0.37041713  0.91967285    -0.32400
C430        C  0.17270037  0.37210561  0.87912833     0.36700
H431        H  0.17906742  0.28330302  0.86133086     0.17100
O432        O  0.18688038  0.27888809  0.93592947    -0.59900
H433        H  0.17759013  0.39859715  0.93555870     0.17100
O434        O  0.18328382  0.41030956  0.86109006    -0.60000
H435        H  0.16510995  0.42068869  0.87295929     0.44100
H436        H  0.17014562  0.24987418  0.92395327     0.44000
C437        C  0.16366555  0.33324580  0.68960246    -0.05000
C438        C  0.19481112  0.32798923  0.66981147    -0.32500
C439        C  0.19578270  0.32714732  0.62921119     0.36800
C440        C  0.16582186  0.33298862  0.60754574    -0.05400
C441        C  0.12939397  0.32783414  0.62737069    -0.32400
C442        C  0.12753481  0.32682742  0.66793883     0.36700
H443        H  0.21740923  0.32244862  0.68577708     0.17100
O444        O  0.22252775  0.31568903  0.61117709    -0.59900
H445        H  0.10114809  0.32234988  0.61145520     0.17100
O446        O  0.08887551  0.31444037  0.68593370    -0.60000
H447        H  0.07704608  0.33131989  0.67391310     0.44100
H448        H  0.25133022  0.33274437  0.62352028     0.44000
C449        C  0.33436788  0.16270435  0.89222380    -0.05000
C450        C  0.37080965  0.19383595  0.87185782    -0.32500
C451        C  0.37191377  0.19401345  0.83139756     0.36800
C452        C  0.33512086  0.16412828  0.81015471    -0.05400
C453        C  0.30358353  0.12782331  0.83040404    -0.32400
C454        C  0.30328967  0.12649690  0.87105529     0.36700
H455        H  0.39935237  0.21734374  0.88728335     0.17100
O456        O  0.40989265  0.22210736  0.81322519    -0.59900
H457        H  0.28001240  0.09949037  0.81479779     0.17100
O458        O  0.27583978  0.08835424  0.88958068    -0.60000
H459        H  0.24684968  0.07726167  0.87800676     0.44100
H460        H  0.42490235  0.20569782  0.80939695     0.44000
C461        C  0.33522183  0.16534649  0.64226042    -0.05000
C462        C  0.37096347  0.19806702  0.62225777    -0.32500
C463        C  0.37304866  0.19826892  0.58163327     0.36800
C464        C  0.33774810  0.16633610  0.56018392    -0.05400
C465        C  0.30765528  0.12914595  0.58038050    -0.32400
C466        C  0.30647666  0.12810257  0.62096428     0.36700
H467        H  0.39851777  0.22253209  0.63810514     0.17100
O468        O  0.41126319  0.22630179  0.56347737    -0.59900
H469        H  0.28562255  0.10008740  0.56471792     0.17100
O470        O  0.28029850  0.08958610  0.63950390    -0.60000
H471        H  0.25129842  0.07697639  0.62749350     0.44100
H472        H  0.42220885  0.25508916  0.57548157     0.44000
C473        C  0.33568187  0.66709992  0.01592701     0.30400
C474        C  0.33366768  0.66486538  0.43638197     0.30400
C475        C  0.35870216  0.64650743  0.99640576    -0.05800
C476        C  0.29057360  0.64299281  0.99733497    -0.06600
C477        C  0.35511686  0.71108778  0.99554353    -0.06400
C478        C  0.35715405  0.64435628  0.45618599    -0.05800
C479        C  0.28909625  0.64252028  0.45689540    -0.06500
C480        C  0.35551847  0.71049332  0.45505381    -0.06400
C481        C  0.37741171  0.62212675  0.44508199    -0.31800
N482        N  0.39208725  0.61249986  0.97768401     0.14700
C483        C  0.38071333  0.62703244  0.00898305    -0.31800
H484        H  0.38677125  0.62235875  0.03879406     0.16600
C485        C  0.24592250  0.62488622  0.44689214    -0.30800
N486        N  0.22210161  0.61298948  0.47984685     0.13400
C487        C  0.24888224  0.62458744  0.01057492    -0.30800
C488        C  0.37519135  0.75329346  0.44312263    -0.31100
N489        N  0.38544864  0.77862645  0.47507742     0.13900
H490        H  0.38133383  0.76532899  0.41373933     0.16500
C491        C  0.37182838  0.75321872  0.00683127    -0.31100
H492        H  0.37474772  0.76507523  0.03608068     0.16500
H493        H  0.23851028  0.62148360  0.04038088     0.16500
H494        H  0.38114063  0.61363996  0.41587643     0.16600
H495        H  0.23275058  0.62182725  0.41814221     0.16500
C496        C  0.33361070  0.66654561  0.18642620     0.30400
C497        C  0.33338813  0.66579893  0.26594831     0.30400
C498        C  0.35621634  0.64501132  0.20598929    -0.05800
C499        C  0.35510219  0.71149116  0.20639649    -0.06600
C500        C  0.28843232  0.64370939  0.20588220    -0.06400
C501        C  0.35545358  0.64445601  0.24616179    -0.05800
C502        C  0.35475651  0.71058143  0.24686992    -0.06500
C503        C  0.28875351  0.64368482  0.24638558    -0.06400
C504        C  0.37624458  0.62370503  0.25853603    -0.31800
N505        N  0.39040665  0.61224564  0.22707674     0.14700
C506        C  0.37880455  0.62520308  0.19461578    -0.31800
H507        H  0.38607008  0.62044636  0.16527494     0.16600
C508        C  0.37174391  0.75227647  0.25963856    -0.30800
N509        N  0.38353295  0.77873008  0.22862849     0.13400
C510        C  0.37275075  0.75454278  0.19584985    -0.30800
C511        C  0.24664134  0.62497791  0.25851878    -0.31100
N512        N  0.22065168  0.61223703  0.22706788     0.13900
H513        H  0.23523334  0.62077025  0.28805269     0.16500
C514        C  0.24541493  0.62403522  0.19469661    -0.31100
H515        H  0.23292164  0.61941146  0.16551626     0.16500
H516        H  0.37704451  0.76743048  0.16684407     0.16500
H517        H  0.38148001  0.61797952  0.28828652     0.16600
H518        H  0.37459784  0.76291921  0.28935418     0.16500
C519        C  0.16697695  0.83506014  0.06327718     0.30400
C520        C  0.16514359  0.83302060  0.48386075     0.30400
C521        C  0.14350913  0.85626329  0.04342493    -0.05800
C522        C  0.21140964  0.85886088  0.04288456    -0.06600
C523        C  0.14516273  0.78996335  0.04450416    -0.06400
C524        C  0.14168864  0.85388741  0.50316872    -0.05800
C525        C  0.20967516  0.85690992  0.50265827    -0.06500
C526        C  0.14365212  0.78908911  0.50420683    -0.06400
C527        C  0.11825286  0.87218820  0.49078836    -0.31800
N528        N  0.10805278  0.88801303  0.02166476     0.14700
C529        C  0.12389185  0.87949423  0.05406331    -0.31800
H530        H  0.12158707  0.88983186  0.08291182     0.16600
C531        C  0.25112595  0.87775740  0.48902678    -0.30800
N532        N  0.27833583  0.89265863  0.01963554     0.13400
C533        C  0.25481779  0.88207292  0.05271552    -0.30800
C534        C  0.12034140  0.74665227  0.49315719    -0.31100
N535        N  0.10969862  0.72177536  0.02514910     0.13900
H536        H  0.11078229  0.73438065  0.46404872     0.16500
C537        C  0.12350436  0.74747927  0.05697814    -0.31100
H538        H  0.11791682  0.73620036  0.08663017     0.16500
H539        H  0.26855747  0.89082971  0.08142262     0.16500
H540        H  0.10976499  0.87476401  0.46125347     0.16600
H541        H  0.26101974  0.88119940  0.45902060     0.16500
C542        C  0.16491297  0.83593857  0.23386211     0.30400
C543        C  0.16455129  0.83529673  0.31338609     0.30400
C544        C  0.14331242  0.85847476  0.25340703    -0.05800
C545        C  0.14275962  0.79158678  0.25305543    -0.06600
C546        C  0.20927887  0.85881759  0.25363622    -0.06400
C547        C  0.14089092  0.85636708  0.29376909    -0.05800
C548        C  0.14240996  0.79053636  0.29339700    -0.06500
C549        C  0.20931531  0.85864137  0.29399541    -0.06400
C550        C  0.11612561  0.87425116  0.30453982    -0.31800
N551        N  0.10758921  0.89033335  0.27236067     0.14700
C552        C  0.12490154  0.88184350  0.24135114    -0.31800
H553        H  0.12342998  0.89159113  0.21203683     0.16600
C554        C  0.12155438  0.74723294  0.30370493    -0.30800
N555        N  0.11027054  0.72330372  0.27078012     0.13400
C556        C  0.12272107  0.74995535  0.23984039    -0.30800
C557        C  0.25204579  0.88084458  0.30582435    -0.31100
N558        N  0.27712910  0.89392910  0.27361929     0.13900
H559        H  0.26391861  0.88676195  0.33530794     0.16500
C560        C  0.25154950  0.88141700  0.24191471    -0.31100
H561        H  0.26337866  0.88918555  0.21251937     0.16500
H562        H  0.11822109  0.73968164  0.20988597     0.16500
H563        H  0.10510581  0.87555322  0.33333660     0.16600
H564        H  0.11469902  0.73385128  0.33261831     0.16500
O565        O  0.44520006  0.51975558  0.02611517    -0.87900
C566        C  0.43277695  0.93736932  0.43911152     0.88100
Mg567      Mg  0.49397379  0.58614978  0.02737502     1.58100
O568        O  0.47830607  0.92492699  0.02497762    -0.87600
O569        O  0.42452772  0.96344489  0.06335067    -0.75000
C570        C  0.17622677  0.59202837  0.48336647     0.93200
O571        O  0.46659601  0.54077285  0.43512542    -0.74800
O572        O  0.15785050  0.61379327  0.47762451    -0.82300
Mg573      Mg  0.40860652  0.99549235  0.47256991     1.58000
C574        C  0.08772490  0.91326892  0.01841187     0.93100
O575        O  0.34499827  0.95086637  0.00316723    -0.80600
H576        H  0.47442287  0.91210476  0.08162917    -0.05900
C577        C  0.06477290  0.49903286  0.44134117     0.88000
O578        O  0.03743595  0.57277905  0.06651422    -0.75100
O579        O  0.42569501  0.94667515  0.47161763    -0.87800
O580        O  0.04956167  0.89537040  0.00447409    -0.80600
C581        C  0.41090771  0.82462247  0.47744489     0.93200
C582        C  0.32398707  0.91251891  0.01620879     0.93100
Mg583      Mg  0.09138630  0.50559744  0.02633619     1.58000
O584        O  0.15574893  0.55316755  0.49570201    -0.80600
O585        O  0.03349097  0.95956516  0.06399177    -0.74800
O586        O  0.39298733  0.84490351  0.49022475    -0.80600
O587        O  0.39041797  0.54706006  0.47213631    -0.82400
O588        O  0.10444120  0.65639751  0.01046411    -0.80700
C589        C  0.99446559  0.93084873  0.05761765     0.87500
O590        O  0.07377915  0.55427392  0.02834553    -0.87800
O591        O  0.05439045  0.98111893  0.47327931    -0.87900
O592        O  0.07530890  0.53822608  0.43692098    -0.75000
Mg593      Mg  0.41176777  0.90768144  0.02321205     1.59000
O594        O  0.45146242  0.84310235  0.47164978    -0.82400
H595        H  0.43631707  0.52151588  0.08302863    -0.06100
O596        O  0.02063484  0.57562726  0.47517407    -0.87600
H597        H  0.02584796  0.58868742  0.41853648    -0.05900
H598        H  0.08349662  0.56054051  0.08555658    -0.06100
C599        C  0.50526324  0.56978723  0.44222176     0.87500
C600        C  0.43482152  0.00242339  0.05827063     0.88100
C601        C  0.06620638  0.56291104  0.06094747     0.88100
H602        H  0.06348504  0.98043797  0.41626343    -0.06100
O603        O  0.46135667  0.92725336  0.43357151    -0.75100
Mg604      Mg  0.08712474  0.59403986  0.47715222     1.58000
H605        H  0.41527799  0.93944736  0.41453046    -0.06100
C606        C  0.41198006  0.58694572  0.48058421     0.93100
O607        O  0.04520353  0.65654204  0.02920366    -0.82300
C608        C  0.08559619  0.67583568  0.02325381     0.93100
O609        O  0.34153659  0.89005662  0.02260576    -0.82300
Mg610      Mg  0.00475772  0.91402011  0.47279578     1.58200
O611        O  0.44943286  0.60439714  0.49570567    -0.80600
O612        O  0.10968123  0.95354077  0.02573152    -0.82300
O613        O  0.01670009  0.94609677  0.22359107    -0.87900
C614        C  0.43428682  0.93466192  0.30997312     0.88100
Mg615      Mg  0.08403696  0.99490655  0.22387563     1.58100
O616        O  0.42416398  0.98151641  0.22406151    -0.87600
O617        O  0.46043039  0.92559483  0.18619228    -0.75000
C618        C  0.08981073  0.67753627  0.26749499     0.93200
O619        O  0.03687569  0.96603279  0.31440748    -0.74800
O620        O  0.11164630  0.65937701  0.27422350    -0.82300
Mg621      Mg  0.49100851  0.90856820  0.27614635     1.58000
C622        C  0.41495302  0.59140250  0.22983785     0.93100
O623        O  0.44358386  0.84478063  0.24479017    -0.80600
H624        H  0.41244095  0.97737147  0.16717694    -0.05900
C625        C  0.99744184  0.56696989  0.30825629     0.88000
O626        O  0.07232718  0.53912759  0.18449346    -0.75100
O627        O  0.44301552  0.92695643  0.27746340    -0.87800
O628        O  0.39669238  0.55353012  0.24408255    -0.80600
C629        C  0.32306076  0.91766254  0.27118084     0.93200
C630        C  0.40489783  0.82467364  0.23193953     0.93100
Mg631      Mg  0.00583580  0.59360029  0.22303671     1.58000
O632        O  0.05153425  0.65700568  0.25410361    -0.80600
O633        O  0.46042279  0.53612798  0.18490824    -0.74800
O634        O  0.34196494  0.89842385  0.25807782    -0.80600
O635        O  0.04233325  0.88928255  0.27621782    -0.82400
O636        O  0.15504298  0.60616222  0.24250843    -0.80700
C637        C  0.43096216  0.49744749  0.19129624     0.87500
O638        O  0.05393275  0.57565941  0.22247065    -0.87800
O639        O  0.48060377  0.55662642  0.27588190    -0.87900
O640        O  0.03623507  0.57691064  0.31394459    -0.75000
Mg641      Mg  0.40442424  0.91458133  0.22564332     1.58000
O642        O  0.34291531  0.95805978  0.27739124    -0.82400
H643        H  0.01838289  0.93674645  0.16672976    -0.06100
O644        O  0.07313549  0.52146464  0.27601242    -0.87600
H645        H  0.08445845  0.52465275  0.33293811    -0.05900
H646        H  0.06172479  0.58625018  0.16545387    -0.06100
C647        C  0.06614740  0.00496443  0.30855763     0.87500
C648        C  0.49940960  0.93575350  0.19137507     0.88100
C649        C  0.06315371  0.56837719  0.19001929     0.88100
H650        H  0.47810468  0.56586142  0.33264604    -0.06100
O651        O  0.42544159  0.96416556  0.31549279    -0.75100
Mg652      Mg  0.09218962  0.58853042  0.27457649     1.58000
H653        H  0.43581385  0.91689589  0.33458061    -0.06100
C654        C  0.08268386  0.91099096  0.26931661     0.93100
O655        O  0.15533597  0.54704826  0.22343760    -0.82300
C656        C  0.17463255  0.58757002  0.22964092     0.93100
O657        O  0.38354683  0.84344432  0.22586419    -0.82300
Mg658      Mg  0.41377855  0.50853683  0.27614555     1.58200
O659        O  0.10105016  0.94924788  0.25571630    -0.80600
O660        O  0.45507826  0.61284281  0.22240363    -0.82300
C661        C  0.16716061  0.83632387  0.35755670    -0.05000
C662        C  0.17289323  0.80545186  0.37737492    -0.32500
C663        C  0.17383708  0.80451961  0.41798962     0.36800
C664        C  0.16731019  0.83403839  0.43960882    -0.05400
C665        C  0.17223886  0.87038880  0.41974203    -0.32400
C666        C  0.17266834  0.87207858  0.37919449     0.36700
H667        H  0.17880514  0.78313685  0.36143927     0.17100
O668        O  0.18631089  0.77852350  0.43604277    -0.59900
H669        H  0.17762014  0.89860160  0.43561803     0.17100
O670        O  0.18326006  0.91028478  0.36116013    -0.60000
H671        H  0.16504540  0.92063347  0.37299662     0.44100
H672        H  0.16949077  0.74954462  0.42401606     0.44000
C673        C  0.16384940  0.83336436  0.18959577    -0.05000
C674        C  0.19513205  0.82834495  0.16978409    -0.32500
C675        C  0.19617288  0.82761385  0.12917535     0.36800
C676        C  0.16605856  0.83321599  0.10749440    -0.05400
C677        C  0.12957152  0.82789635  0.12733558    -0.32400
C678        C  0.12769508  0.82684563  0.16791104     0.36700
H679        H  0.21779754  0.82289328  0.18573194     0.17100
O680        O  0.22319532  0.81651561  0.11114497    -0.59900
H681        H  0.10128828  0.82231073  0.11142501     0.17100
O682        O  0.08900602  0.81434255  0.18589493    -0.60000
H683        H  0.07714681  0.83121792  0.17392211     0.44100
H684        H  0.25194045  0.83370652  0.12356088     0.44000
C685        C  0.33433514  0.66270450  0.39221085    -0.05000
C686        C  0.37078400  0.69382132  0.37184388    -0.32500
C687        C  0.37189626  0.69399104  0.33138731     0.36800
C688        C  0.33510144  0.66411793  0.31014494    -0.05400
C689        C  0.30353544  0.62783417  0.33039097    -0.32400
C690        C  0.30322021  0.62651764  0.37104045     0.36700
H691        H  0.39934236  0.71730647  0.38726406     0.17100
O692        O  0.40989192  0.72204148  0.31321530    -0.59900
H693        H  0.27995067  0.59950932  0.31478482     0.17100
O694        O  0.27568289  0.58840342  0.38956298    -0.60000
H695        H  0.24670879  0.57739171  0.37797825     0.44100
H696        H  0.42507857  0.70574765  0.30979237     0.44000
C697        C  0.33524697  0.66534771  0.14227000    -0.05000
C698        C  0.37090538  0.69813170  0.12223853    -0.32500
C699        C  0.37293040  0.69833050  0.08161429     0.36800
C700        C  0.33763251  0.66635891  0.06019566    -0.05400
C701        C  0.30762579  0.62913039  0.08040903    -0.32400
C702        C  0.30654958  0.62806863  0.12099659     0.36700
H703        H  0.39845740  0.72263695  0.13805764     0.17100
O704        O  0.41110489  0.72639320  0.06341945    -0.59900
H705        H  0.28561737  0.60005255  0.06475878     0.17100
O706        O  0.28053862  0.58952136  0.13955805    -0.60000
H707        H  0.25149015  0.57682178  0.12763597     0.44100
H708        H  0.42200512  0.75518756  0.07539259     0.44000
C709        C  0.33578100  0.66708700  0.51591416     0.30400
C710        C  0.33365510  0.66487764  0.93639494     0.30400
C711        C  0.35864077  0.64635292  0.49635970    -0.05800
C712        C  0.29064448  0.64311237  0.49734713    -0.06600
C713        C  0.35534459  0.71108080  0.49553791    -0.06400
C714        C  0.35726903  0.64452560  0.95623343    -0.05800
C715        C  0.28905747  0.64239790  0.95688193    -0.06500
C716        C  0.35535508  0.71049898  0.95505958    -0.06400
C717        C  0.37772427  0.62248430  0.94514926    -0.31800
N718        N  0.39171923  0.61206387  0.47760738     0.14700
C719        C  0.38050671  0.62672661  0.50891561    -0.31800
H720        H  0.38659639  0.62206296  0.53871983     0.16600
C721        C  0.24587543  0.62468517  0.94686066    -0.30800
N722        N  0.22203613  0.61272823  0.97980698     0.13400
C723        C  0.24896150  0.62477815  0.51060450    -0.30800
C724        C  0.37501867  0.75329327  0.94312052    -0.31100
N725        N  0.38516489  0.77862831  0.97506426     0.13900
H726        H  0.38126462  0.76532675  0.91373731     0.16500
C727        C  0.37213819  0.75321559  0.50683982    -0.31100
H728        H  0.37507889  0.76507176  0.53609119     0.16500
H729        H  0.23860554  0.62165378  0.54041671     0.16500
H730        H  0.38152416  0.61404448  0.91594722     0.16600
H731        H  0.23271219  0.62163095  0.91810677     0.16500
C732        C  0.33357324  0.66654115  0.68642178     0.30400
C733        C  0.33339531  0.66581476  0.76595179     0.30400
C734        C  0.35618953  0.64501165  0.70597668    -0.05800
C735        C  0.35508048  0.71149138  0.70638591    -0.06600
C736        C  0.28840392  0.64371326  0.70590312    -0.06400
C737        C  0.35545169  0.64447016  0.74615000    -0.05800
C738        C  0.35474662  0.71059396  0.74686153    -0.06500
C739        C  0.28875565  0.64369357  0.74640883    -0.06400
C740        C  0.37623788  0.62371040  0.75851344    -0.31800
N741        N  0.39037792  0.61223372  0.72704957     0.14700
C742        C  0.37875588  0.62518124  0.69459318    -0.31800
H743        H  0.38598769  0.62039818  0.66524843     0.16600
C744        C  0.37178091  0.75230119  0.75961680    -0.30800
N745        N  0.38361162  0.77874783  0.72859876     0.13400
C746        C  0.37279497  0.75454691  0.69582676    -0.30800
C747        C  0.24666048  0.62499437  0.75857670    -0.31100
N748        N  0.22064562  0.61226073  0.72714712     0.13900
H749        H  0.23528023  0.62078383  0.78812006     0.16500
C750        C  0.24537530  0.62405965  0.69475488    -0.31100
H751        H  0.23284868  0.61945524  0.66558863     0.16500
H752        H  0.37711662  0.76742792  0.66681572     0.16500
H753        H  0.38147890  0.61798427  0.78826181     0.16600
H754        H  0.37464507  0.76295938  0.78932817     0.16500
C755        C  0.16679439  0.83489801  0.56335208     0.30400
C756        C  0.16531925  0.83308945  0.98377655     0.30400
C757        C  0.14356659  0.85637218  0.54353530    -0.05800
C758        C  0.21125091  0.85848279  0.54297807    -0.06600
C759        C  0.14475017  0.78982247  0.54455202    -0.06400
C760        C  0.14161724  0.85372580  0.00305986    -0.05800
C761        C  0.20984193  0.85721348  0.00256577    -0.06500
C762        C  0.14408748  0.78918559  0.00415371    -0.06400
C763        C  0.11806308  0.87190358  0.99066161    -0.31800
N764        N  0.10828776  0.88831170  0.52180192     0.14700
C765        C  0.12403985  0.87968559  0.55420052    -0.31800
H766        H  0.12168750  0.88995529  0.58306544     0.16600
C767        C  0.25129951  0.87808643  0.98894460    -0.30800
N768        N  0.27818310  0.89218593  0.51970634     0.13400
C769        C  0.25467504  0.88153804  0.55280492    -0.30800
C770        C  0.12089482  0.74673311  0.99312901    -0.31100
N771        N  0.10915377  0.72166415  0.52515606     0.13900
H772        H  0.11134254  0.73443252  0.96402676     0.16500
C773        C  0.12304891  0.74733279  0.55700142    -0.31100
H774        H  0.11756444  0.73602597  0.58664454     0.16500
H775        H  0.26842139  0.89018764  0.58151873     0.16500
H776        H  0.10959093  0.87446911  0.96111781     0.16600
H777        H  0.26121238  0.88140437  0.95895089     0.16500
C778        C  0.16478521  0.83587126  0.73384412     0.30400
C779        C  0.16452794  0.83528670  0.81334643     0.30400
C780        C  0.14321150  0.85842407  0.75340376    -0.05800
C781        C  0.14266562  0.79153150  0.75305181    -0.06600
C782        C  0.20918012  0.85876366  0.75356051    -0.06400
C783        C  0.14083446  0.85633569  0.79376311    -0.05800
C784        C  0.14237244  0.79050923  0.79338887    -0.06500
C785        C  0.20926227  0.85862266  0.79391468    -0.06400
C786        C  0.11610635  0.87424984  0.80456437    -0.31800
N787        N  0.10756956  0.89034786  0.77239888     0.14700
C788        C  0.12484119  0.88183748  0.74137367    -0.31800
H789        H  0.12337488  0.89161093  0.71206814     0.16600
C790        C  0.12158694  0.74721556  0.80371882    -0.30800
N791        N  0.11027253  0.72326267  0.77080581     0.13400
C792        C  0.12265734  0.74989337  0.73985349    -0.30800
C793        C  0.25199768  0.88080460  0.80571071    -0.31100
N794        N  0.27705001  0.89382966  0.77348913     0.13900
H795        H  0.26389651  0.88674392  0.83518584     0.16500
C796        C  0.25144111  0.88129529  0.74179893    -0.31100
H797        H  0.26323521  0.88898417  0.71238745     0.16500
H798        H  0.11813289  0.73960266  0.70990269     0.16500
H799        H  0.10512030  0.87557047  0.83337121     0.16600
H800        H  0.11480552  0.73386028  0.83264196     0.16500
O801        O  0.44497269  0.51948499  0.52602272    -0.87900
C802        C  0.43274362  0.93752207  0.93919740     0.88100
Mg803      Mg  0.49368482  0.58589238  0.52731465     1.58100
O804        O  0.47840685  0.92505347  0.52491258    -0.87600
O805        O  0.42430089  0.96325503  0.56333566    -0.75000
C806        C  0.17616781  0.59178839  0.98332786     0.93200
O807        O  0.46675661  0.54092804  0.93517335    -0.74800
O808        O  0.15783863  0.61359667  0.97762064    -0.82300
Mg809      Mg  0.40879652  0.99579878  0.97268187     1.58000
C810        C  0.08794110  0.91354197  0.51854112     0.93100
O811        O  0.34477998  0.95038138  0.50300239    -0.80600
H812        H  0.47453333  0.91215131  0.58154501    -0.05900
C813        C  0.06462360  0.49888983  0.94141445     0.88000
O814        O  0.03721098  0.57262375  0.56645531    -0.75100
O815        O  0.42575801  0.94687814  0.97171305    -0.87800
O816        O  0.04974722  0.89558881  0.50466252    -0.80600
C817        C  0.41067810  0.82462405  0.97742577     0.93200
C818        C  0.32384254  0.91209664  0.51621014     0.93100
Mg819      Mg  0.09147977  0.50576234  0.52630026     1.58000
O820        O  0.15566089  0.55292378  0.99566208    -0.80600
O821        O  0.03359778  0.95963265  0.56391981    -0.74800
O822        O  0.39281525  0.84496390  0.99020887    -0.80600
O823        O  0.39075145  0.54747904  0.97224794    -0.82400
O824        O  0.10415929  0.65641014  0.51043702    -0.80700
C825        C  0.99456787  0.93093352  0.55754518     0.87500
O826        O  0.07372880  0.55432550  0.52829166    -0.87800
O827        O  0.05422825  0.98099219  0.97335466    -0.87900
O828        O  0.07523679  0.53810179  0.93698519    -0.75000
Mg829      Mg  0.41178563  0.90757073  0.52319736     1.59000
O830        O  0.45122530  0.84304632  0.97161017    -0.82400
H831        H  0.43584984  0.52128983  0.58288635    -0.06100
O832        O  0.02079310  0.57573159  0.97522916    -0.87600
H833        H  0.02604423  0.58876193  0.91858386    -0.05900
H834        H  0.08337304  0.56054268  0.58551145    -0.06100
C835        C  0.50543524  0.56990108  0.94227162     0.87500
C836        C  0.43450205  0.00219306  0.55818474     0.88100
C837        C  0.06607536  0.56288418  0.56089438     0.88100
H838        H  0.06327631  0.98026217  0.91634235    -0.06100
O839        O  0.46122181  0.92727963  0.93362602    -0.75100
Mg840      Mg  0.08720638  0.59397791  0.97719164     1.58000
H841        H  0.41524610  0.93965287  0.91464098    -0.06100
C842        C  0.41234125  0.58737016  0.98067009     0.93100
O843        O  0.04479220  0.65631325  0.52917164    -0.82300
C844        C  0.08518942  0.67572685  0.52322881     0.93100
O845        O  0.34147186  0.88972433  0.52269567    -0.82300
Mg846      Mg  0.00457980  0.91392416  0.97278865     1.58200
O847        O  0.44980877  0.60480653  0.99576269    -0.80600
O848        O  0.10992062  0.95383976  0.52572733    -0.82300
O849        O  0.01673230  0.94613887  0.72357818    -0.87900
C850        C  0.43420918  0.93460140  0.80987963     0.88100
Mg851      Mg  0.08406984  0.99493650  0.72391440     1.58100
O852        O  0.42404707  0.98146833  0.72396532    -0.87600
O853        O  0.46045902  0.92565573  0.68617187    -0.75000
C854        C  0.08980051  0.67749128  0.76754354     0.93200
O855        O  0.03679856  0.96599783  0.81445424    -0.74800
O856        O  0.11162342  0.65932698  0.77430490    -0.82300
Mg857      Mg  0.49100552  0.90858346  0.77611795     1.58000
C858        C  0.41490259  0.59136344  0.72980727     0.93100
O859        O  0.44369403  0.84481513  0.74467951    -0.80600
H860        H  0.41247255  0.97739883  0.66705398    -0.05900
C861        C  0.99732707  0.56689288  0.80824907     0.88000
O862        O  0.07244937  0.53921397  0.68453820    -0.75100
O863        O  0.44301011  0.92697204  0.77737443    -0.87800
O864        O  0.39662253  0.55349458  0.74405885    -0.80600
C865        C  0.32297981  0.91757714  0.77105120     0.93200
C866        C  0.40498171  0.82469279  0.73189506     0.93100
Mg867      Mg  0.00582799  0.59355337  0.72305158     1.58000
O868        O  0.05152259  0.65695968  0.75414768    -0.80600
O869        O  0.46046771  0.53610572  0.68487251    -0.74800
O870        O  0.34190934  0.89833704  0.75800966    -0.80600
O871        O  0.04233634  0.88932469  0.77628469    -0.82400
O872        O  0.15503919  0.60611821  0.74270607    -0.80700
C873        C  0.43094681  0.49743674  0.69121008     0.87500
O874        O  0.05395002  0.57563274  0.72254163    -0.87800
O875        O  0.48052272  0.55653679  0.77586237    -0.87900
O876        O  0.03612256  0.57685670  0.81397680    -0.75000
Mg877      Mg  0.40439905  0.91455569  0.72558400     1.58000
O878        O  0.34281477  0.95797851  0.77724388    -0.82400
H879        H  0.01843113  0.93687721  0.66670000    -0.06100
O880        O  0.07312524  0.52144016  0.77608999    -0.87600
H881        H  0.08439160  0.52459057  0.83302562    -0.05900
H882        H  0.06191454  0.58640008  0.66555661    -0.06100
C883        C  0.06609939  0.00492133  0.80862887     0.87500
C884        C  0.49944688  0.93583577  0.69135444     0.88100
C885        C  0.06326831  0.56845166  0.69009420     0.88100
H886        H  0.47796091  0.56578491  0.83261442    -0.06100
O887        O  0.42529813  0.96405481  0.81540943    -0.75100
Mg888      Mg  0.09214991  0.58848867  0.77468307     1.58000
H889        H  0.43571708  0.91680647  0.83447172    -0.06100
C890        C  0.08268143  0.91101935  0.76936806     0.93100
O891        O  0.15535557  0.54705957  0.72349430    -0.82300
C892        C  0.17463499  0.58756765  0.72975771     0.93100
O893        O  0.38360759  0.84344832  0.72587498    -0.82300
Mg894      Mg  0.41367581  0.50845915  0.77607514     1.58200
O895        O  0.10104638  0.94925756  0.75573182    -0.80600
O896        O  0.45503177  0.61277909  0.72237129    -0.82300
C897        C  0.16721737  0.83635706  0.85749836    -0.05000
C898        C  0.17310655  0.80557299  0.87728995    -0.32500
C899        C  0.17414946  0.80469023  0.91790018     0.36800
C900        C  0.16748467  0.83411104  0.93952826    -0.05400
C901        C  0.17228808  0.87041720  0.91967284    -0.32400
C902        C  0.17270033  0.87210562  0.87912832     0.36700
H903        H  0.17906746  0.78330310  0.86133084     0.17100
O904        O  0.18688039  0.77888818  0.93592948    -0.59900
H905        H  0.17759010  0.89859719  0.93555870     0.17100
O906        O  0.18328398  0.91030967  0.86109007    -0.60000
H907        H  0.16511026  0.92068875  0.87295903     0.44100
H908        H  0.17014572  0.74987429  0.92395317     0.44000
C909        C  0.16366555  0.83324584  0.68960246    -0.05000
C910        C  0.19481110  0.82798926  0.66981145    -0.32500
C911        C  0.19578263  0.82714730  0.62921118     0.36800
C912        C  0.16582179  0.83298862  0.60754575    -0.05400
C913        C  0.12939388  0.82783406  0.62737070    -0.32400
C914        C  0.12753476  0.82682741  0.66793884     0.36700
H915        H  0.21740928  0.82244870  0.68577701     0.17100
O916        O  0.22252773  0.81568911  0.61117706    -0.59900
H917        H  0.10114793  0.82234965  0.61145521     0.17100
O918        O  0.08887544  0.81444022  0.68593372    -0.60000
H919        H  0.07704592  0.83131968  0.67391316     0.44100
H920        H  0.25133019  0.83274450  0.62352027     0.44000
C921        C  0.33436786  0.66270446  0.89222378    -0.05000
C922        C  0.37080961  0.69383605  0.87185780    -0.32500
C923        C  0.37191371  0.69401353  0.83139754     0.36800
C924        C  0.33512078  0.66412836  0.81015468    -0.05400
C925        C  0.30358348  0.62782339  0.83040401    -0.32400
C926        C  0.30328964  0.62649700  0.87105527     0.36700
H927        H  0.39935236  0.71734383  0.88728331     0.17100
O928        O  0.40989259  0.72210731  0.81322515    -0.59900
H929        H  0.28001234  0.59949043  0.81479776     0.17100
O930        O  0.27583976  0.58835435  0.88958068    -0.60000
H931        H  0.24684966  0.57726178  0.87800676     0.44100
H932        H  0.42490229  0.70569756  0.80939702     0.44000
C933        C  0.33522183  0.66534645  0.64226035    -0.05000
C934        C  0.37096351  0.69806693  0.62225772    -0.32500
C935        C  0.37304869  0.69826886  0.58163322     0.36800
C936        C  0.33774815  0.66633604  0.56018386    -0.05400
C937        C  0.30765528  0.62914591  0.58038044    -0.32400
C938        C  0.30647669  0.62810254  0.62096422     0.36700
H939        H  0.39851787  0.72253190  0.63810510     0.17100
O940        O  0.41126329  0.72630166  0.56347736    -0.59900
H941        H  0.28562244  0.60008738  0.56471786     0.17100
O942        O  0.28029841  0.58958611  0.63950385    -0.60000
H943        H  0.25129855  0.57697650  0.62749340     0.44100
H944        H  0.42220890  0.75508904  0.57548137     0.44000
C945        C  0.83568184  0.16709987  0.01592700     0.30400
C946        C  0.83366760  0.16486548  0.43638197     0.30400
C947        C  0.85870208  0.14650731  0.99640579    -0.05800
C948        C  0.79057357  0.14299280  0.99733497    -0.06600
C949        C  0.85511685  0.21108772  0.99554348    -0.06400
C950        C  0.85715401  0.14435643  0.45618599    -0.05800
C951        C  0.78909619  0.14252035  0.45689542    -0.06500
C952        C  0.85551837  0.21049340  0.45505381    -0.06400
C953        C  0.87741171  0.12212693  0.44508201    -0.31800
N954        N  0.89208723  0.11249978  0.97768414     0.14700
C955        C  0.88071326  0.12703234  0.00898313    -0.31800
H956        H  0.88677116  0.12235868  0.03879416     0.16600
C957        C  0.74592246  0.12488635  0.44689215    -0.30800
N958        N  0.72210157  0.11298956  0.47984687     0.13400
C959        C  0.74888224  0.12458753  0.01057492    -0.30800
C960        C  0.87519132  0.25329354  0.44312261    -0.31100
N961        N  0.88544862  0.27862654  0.47507737     0.13900
H962        H  0.88133390  0.26532906  0.41373933     0.16500
C963        C  0.87182836  0.25321870  0.00683114    -0.31100
H964        H  0.87474775  0.26507526  0.03608054     0.16500
H965        H  0.73851027  0.12148378  0.04038088     0.16500
H966        H  0.88114068  0.11364018  0.41587646     0.16600
H967        H  0.73275059  0.12182745  0.41814220     0.16500
C968        C  0.83361067  0.16654559  0.18642620     0.30400
C969        C  0.83338801  0.16579888  0.26594831     0.30400
C970        C  0.85621630  0.14501129  0.20598933    -0.05800
C971        C  0.85510213  0.21149112  0.20639648    -0.06600
C972        C  0.78843229  0.14370938  0.20588216    -0.06400
C973        C  0.85545344  0.14445592  0.24616185    -0.05800
C974        C  0.85475641  0.21058138  0.24686992    -0.06500
C975        C  0.78875344  0.14368481  0.24638552    -0.06400
C976        C  0.87624442  0.12370494  0.25853613    -0.31800
N977        N  0.89040659  0.11224563  0.22707688     0.14700
C978        C  0.87880459  0.12520312  0.19461587    -0.31800
H979        H  0.88607029  0.12044650  0.16527506     0.16600
C980        C  0.87174380  0.25227641  0.25963858    -0.30800
N981        N  0.88353292  0.27873002  0.22862851     0.13400
C982        C  0.87275073  0.25454275  0.19584986    -0.30800
C983        C  0.74664128  0.12497790  0.25851868    -0.31100
N984        N  0.72065164  0.11223708  0.22706776     0.13900
H985        H  0.73523333  0.12077017  0.28805257     0.16500
C986        C  0.74541490  0.12403519  0.19469653    -0.31100
H987        H  0.73292169  0.11941138  0.16551614     0.16500
H988        H  0.87704453  0.26743049  0.16684408     0.16500
H989        H  0.88147984  0.11797948  0.28828668     0.16600
H990        H  0.87459773  0.26291913  0.28935422     0.16500
C991        C  0.66697698  0.33506020  0.06327717     0.30400
C992        C  0.66514365  0.33302050  0.48386075     0.30400
C993        C  0.64350913  0.35626331  0.04342489    -0.05800
C994        C  0.71140967  0.35886088  0.04288451    -0.06600
C995        C  0.64516274  0.28996338  0.04450421    -0.06400
C996        C  0.64168869  0.35388727  0.50316868    -0.05800
C997        C  0.70967523  0.35690989  0.50265825    -0.06500
C998        C  0.64365226  0.28908905  0.50420688    -0.06400
C999        C  0.61825295  0.37218807  0.49078826    -0.31800
N1000       N  0.60805274  0.38801300  0.02166463     0.14700
C1001       C  0.62389189  0.37949432  0.05406321    -0.31800
H1002       H  0.62158725  0.38983211  0.08291168     0.16600
C1003       C  0.75112603  0.37775744  0.48902678    -0.30800
N1004       N  0.77833581  0.39265862  0.01963544     0.13400
C1005       C  0.75481782  0.38207291  0.05271544    -0.30800
C1006       C  0.62034157  0.24665223  0.49315726    -0.31100
N1007       N  0.60969863  0.22177533  0.02514927     0.13900
H1008       H  0.61078247  0.23438057  0.46404883     0.16500
C1009       C  0.62350442  0.24747933  0.05697825    -0.31100
H1010       H  0.61791697  0.23620047  0.08663029     0.16500
H1011       H  0.76855752  0.39082975  0.08142257     0.16500
H1012       H  0.60976509  0.37476390  0.46125336     0.16600
H1013       H  0.76101984  0.38119956  0.45902060     0.16500
C1014       C  0.66491301  0.33593864  0.23386211     0.30400
C1015       C  0.66455135  0.33529672  0.31338609     0.30400
C1016       C  0.64331243  0.35847478  0.25340712    -0.05800
C1017       C  0.64275971  0.29158683  0.25305538    -0.06600
C1018       C  0.70927889  0.35881762  0.25363620    -0.06400
C1019       C  0.64089097  0.35636709  0.29376918    -0.05800
C1020       C  0.64241003  0.29053638  0.29339696    -0.06500
C1021       C  0.70931535  0.35864135  0.29399536    -0.06400
C1022       C  0.61612567  0.37425117  0.30454000    -0.31800
N1023       N  0.60758914  0.39033327  0.27236089     0.14700
C1024       C  0.62490148  0.38184347  0.24135131    -0.31800
H1025       H  0.62342992  0.39159116  0.21203704     0.16600
C1026       C  0.62155439  0.24723296  0.30370487    -0.30800
N1027       N  0.61027054  0.22330374  0.27078005     0.13400
C1028       C  0.62272112  0.24995540  0.23984032    -0.30800
C1029       C  0.75204582  0.38084455  0.30582428    -0.31100
N1030       N  0.77712912  0.39392915  0.27361924     0.13900
H1031       H  0.76391864  0.38676186  0.33530784     0.16500
C1032       C  0.75154951  0.38141708  0.24191468    -0.31100
H1033       H  0.76337867  0.38918570  0.21251939     0.16500
H1034       H  0.61822110  0.23968173  0.20988586     0.16500
H1035       H  0.60510597  0.37555331  0.33333683     0.16600
H1036       H  0.61469900  0.23385133  0.33261826     0.16500
O1037       O  0.94519997  0.01975550  0.02611534    -0.87900
C1038       C  0.93277716  0.43736945  0.43911126     0.88100
Mg1039     Mg  0.99397378  0.08614966  0.02737522     1.58100
O1040       O  0.97830600  0.42492686  0.02497753    -0.87600
O1041       O  0.92452770  0.46344484  0.06335045    -0.75000
C1042       C  0.67622671  0.09202836  0.48336658     0.93200
O1043       O  0.96659596  0.04077295  0.43512545    -0.74800
O1044       O  0.65785041  0.11379325  0.47762475    -0.82300
Mg1045     Mg  0.90860657  0.49549246  0.47256980     1.58000
C1046       C  0.58772491  0.41326894  0.01841167     0.93100
O1047       O  0.84499823  0.45086635  0.00316699    -0.80600
H1048       H  0.97442295  0.41210497  0.08162917    -0.05900
C1049       C  0.56477285  0.99903279  0.44134130     0.88000
O1050       O  0.53743582  0.07277893  0.06651428    -0.75100
O1051       O  0.92569517  0.44667530  0.47161736    -0.87800
O1052       O  0.54956172  0.39537046  0.00447384    -0.80600
C1053       C  0.91090776  0.32462254  0.47744480     0.93200
C1054       C  0.82398707  0.41251895  0.01620866     0.93100
Mg1055     Mg  0.59138630  0.00559744  0.02633633     1.58000
O1056       O  0.65574894  0.05316752  0.49570206    -0.80600
O1057       O  0.53349104  0.45956527  0.06399152    -0.74800
O1058       O  0.89298747  0.34490365  0.49022472    -0.80600
O1059       O  0.89041779  0.04706013  0.47213633    -0.82400
O1060       O  0.60444125  0.15639746  0.01046439    -0.80700
C1061       C  0.49446571  0.43084880  0.05761742     0.87500
O1062       O  0.57377909  0.05427384  0.02834562    -0.87800
O1063       O  0.55439064  0.48111885  0.47327926    -0.87900
O1064       O  0.57530888  0.03822603  0.43692117    -0.75000
Mg1065     Mg  0.91176777  0.40768139  0.02321192     1.59000
O1066       O  0.95146245  0.34310236  0.47164960    -0.82400
H1067       H  0.93631673  0.02151587  0.08302875    -0.06100
O1068       O  0.52063470  0.07562715  0.47517426    -0.87600
H1069       H  0.52584797  0.08868733  0.41853671    -0.05900
H1070       H  0.58349654  0.06054046  0.08555663    -0.06100
C1071       C  0.00526321  0.06978723  0.44222190     0.87500
C1072       C  0.93482158  0.50242337  0.05827045     0.88100
C1073       C  0.56620629  0.06291096  0.06094756     0.88100
H1074       H  0.56348526  0.48043774  0.41626341    -0.06100
O1075       O  0.96135680  0.42725334  0.43357134    -0.75100
Mg1076     Mg  0.58712465  0.09403978  0.47715240     1.58000
H1077       H  0.91527833  0.43944751  0.41453013    -0.06100
C1078       C  0.91197988  0.08694575  0.48058428     0.93100
O1079       O  0.54520356  0.15654200  0.02920390    -0.82300
C1080       C  0.58559625  0.17583566  0.02325404     0.93100
O1081       O  0.84153664  0.39005671  0.02260578    -0.82300
Mg1082     Mg  0.50475783  0.41402002  0.47279571     1.58200
O1083       O  0.94943266  0.10439713  0.49570579    -0.80600
O1084       O  0.60968128  0.45354080  0.02573129    -0.82300
O1085       O  0.51670013  0.44609672  0.22359113    -0.87900
C1086       C  0.93428675  0.43466181  0.30997311     0.88100
Mg1087     Mg  0.58403696  0.49490652  0.22387573     1.58100
O1088       O  0.92416415  0.48151640  0.22406142    -0.87600
O1089       O  0.96043037  0.42559472  0.18619232    -0.75000
C1090       C  0.58981071  0.17753626  0.26749495     0.93200
O1091       O  0.53687566  0.46603286  0.31440771    -0.74800
O1092       O  0.61164627  0.15937699  0.27422343    -0.82300
Mg1093     Mg  0.99100853  0.40856815  0.27614638     1.58000
C1094       C  0.91495302  0.09140255  0.22983799     0.93100
O1095       O  0.94358381  0.34478058  0.24479018    -0.80600
H1096       H  0.91244087  0.47737158  0.16717690    -0.05900
C1097       C  0.49744184  0.06697000  0.30825631     0.88000
O1098       O  0.57232708  0.03912749  0.18449340    -0.75100
O1099       O  0.94301549  0.42695635  0.27746340    -0.87800
O1100       O  0.89669245  0.05353019  0.24408267    -0.80600
C1101       C  0.82306076  0.41766255  0.27118070     0.93200
C1102       C  0.90489778  0.32467356  0.23193954     0.93100
Mg1103     Mg  0.50583563  0.09360024  0.22303674     1.58000
O1104       O  0.55153420  0.15700565  0.25410363    -0.80600
O1105       O  0.96042253  0.03612798  0.18490829    -0.74800
O1106       O  0.84196490  0.39842385  0.25807763    -0.80600
O1107       O  0.54233318  0.38928248  0.27621807    -0.82400
O1108       O  0.65504290  0.10616220  0.24250839    -0.80700
C1109       C  0.93096200  0.99744746  0.19129642     0.87500
O1110       O  0.55393258  0.07565934  0.22247052    -0.87800
O1111       O  0.98060376  0.05662639  0.27588196    -0.87900
O1112       O  0.53623509  0.07691079  0.31394453    -0.75000
Mg1113     Mg  0.90442425  0.41458126  0.22564327     1.58000
O1114       O  0.84291534  0.45805980  0.27739105    -0.82400
H1115       H  0.51838301  0.43674639  0.16672984    -0.06100
O1116       O  0.57313553  0.02146471  0.27601237    -0.87600
H1117       H  0.58445840  0.02465272  0.33293806    -0.05900
H1118       H  0.56172445  0.08624981  0.16545365    -0.06100
C1119       C  0.56614732  0.50496451  0.30855774     0.87500
C1120       C  0.99940960  0.43575343  0.19137505     0.88100
C1121       C  0.56315349  0.06837702  0.19001915     0.88100
H1122       H  0.97810480  0.06586127  0.33264613    -0.06100
O1123       O  0.92544152  0.46416545  0.31549276    -0.75100
Mg1124     Mg  0.59218955  0.08853042  0.27457638     1.58000
H1125       H  0.93581375  0.41689576  0.33458060    -0.06100
C1126       C  0.58268379  0.41099089  0.26931685     0.93100
O1127       O  0.65533594  0.04704829  0.22343753    -0.82300
C1128       C  0.67463248  0.08757003  0.22964085     0.93100
O1129       O  0.88354676  0.34344423  0.22586419    -0.82300
Mg1130     Mg  0.91377857  0.00853685  0.27614569     1.58200
O1131       O  0.60105008  0.44924780  0.25571652    -0.80600
O1132       O  0.95507828  0.11284294  0.22240377    -0.82300
C1133       C  0.66716066  0.33632379  0.35755671    -0.05000
C1134       C  0.67289318  0.30545170  0.37737492    -0.32500
C1135       C  0.67383705  0.30451946  0.41798961     0.36800
C1136       C  0.66731018  0.33403825  0.43960883    -0.05400
C1137       C  0.67223890  0.37038870  0.41974205    -0.32400
C1138       C  0.67266846  0.37207849  0.37919450     0.36700
H1139       H  0.67880509  0.28313672  0.36143926     0.17100
O1140       O  0.68631102  0.27852345  0.43604273    -0.59900
H1141       H  0.67762020  0.39860150  0.43561805     0.17100
O1142       O  0.68326026  0.41028476  0.36116017    -0.60000
H1143       H  0.66504586  0.42063334  0.37299646     0.44100
H1144       H  0.66949084  0.24954453  0.42401617     0.44000
C1145       C  0.66384947  0.33336449  0.18959578    -0.05000
C1146       C  0.69513214  0.32834512  0.16978410    -0.32500
C1147       C  0.69617298  0.32761405  0.12917536     0.36800
C1148       C  0.66605864  0.33321616  0.10749441    -0.05400
C1149       C  0.62957165  0.32789660  0.12733560    -0.32400
C1150       C  0.62769521  0.32684588  0.16791106     0.36700
H1151       H  0.71779759  0.32289341  0.18573197     0.17100
O1152       O  0.72319541  0.31651581  0.11114499    -0.59900
H1153       H  0.60128842  0.32231104  0.11142506     0.17100
O1154       O  0.58900619  0.31434301  0.18589494    -0.60000
H1155       H  0.57714710  0.33121845  0.17392204     0.44100
H1156       H  0.75194054  0.33370674  0.12356088     0.44000
C1157       C  0.83433498  0.16270455  0.39221085    -0.05000
C1158       C  0.87078390  0.19382127  0.37184388    -0.32500
C1159       C  0.87189614  0.19399102  0.33138730     0.36800
C1160       C  0.83510133  0.16411794  0.31014493    -0.05400
C1161       C  0.80353534  0.12783419  0.33039098    -0.32400
C1162       C  0.80322004  0.12651775  0.37104046     0.36700
H1163       H  0.89934228  0.21730629  0.38726410     0.17100
O1164       O  0.90989179  0.22204139  0.31321531    -0.59900
H1165       H  0.77995066  0.09950934  0.31478483     0.17100
O1166       O  0.77568262  0.08840353  0.38956298    -0.60000
H1167       H  0.74670868  0.07739182  0.37797818     0.44100
H1168       H  0.92507846  0.20574725  0.30979233     0.44000
C1169       C  0.83524693  0.16534768  0.14226999    -0.05000
C1170       C  0.87090531  0.19813169  0.12223849    -0.32500
C1171       C  0.87293034  0.19833044  0.08161426     0.36800
C1172       C  0.83763248  0.16635886  0.06019565    -0.05400
C1173       C  0.80762576  0.12913035  0.08040904    -0.32400
C1174       C  0.80654955  0.12806860  0.12099659     0.36700
H1175       H  0.89845730  0.22263694  0.13805757     0.17100
O1176       O  0.91110484  0.22639310  0.06341942    -0.59900
H1177       H  0.78561734  0.10005252  0.06475878     0.17100
O1178       O  0.78053864  0.08952135  0.13955808    -0.60000
H1179       H  0.75149007  0.07682152  0.12763576     0.44100
H1180       H  0.92200507  0.25518750  0.07539252     0.44000
C1181       C  0.83578094  0.16708711  0.51591416     0.30400
C1182       C  0.83365505  0.16487752  0.93639494     0.30400
C1183       C  0.85864068  0.14635302  0.49635970    -0.05800
C1184       C  0.79064443  0.14311244  0.49734714    -0.06600
C1185       C  0.85534452  0.21108090  0.49553789    -0.06400
C1186       C  0.85726896  0.14452546  0.95623348    -0.05800
C1187       C  0.78905745  0.14239786  0.95688193    -0.06500
C1188       C  0.85535505  0.21049888  0.95505952    -0.06400
C1189       C  0.87772422  0.12248417  0.94514937    -0.31800
N1190       N  0.89171914  0.11206398  0.47760743     0.14700
C1191       C  0.88050658  0.12672670  0.50891565    -0.31800
H1192       H  0.88659628  0.12206313  0.53871988     0.16600
C1193       C  0.74587540  0.12468510  0.94686066    -0.30800
N1194       N  0.72203612  0.11272825  0.97980699     0.13400
C1195       C  0.74896146  0.12477816  0.51060451    -0.30800
C1196       C  0.87501861  0.25329313  0.94312038    -0.31100
N1197       N  0.88516488  0.27862824  0.97506408     0.13900
H1198       H  0.88126451  0.26532653  0.91373713     0.16500
C1199       C  0.87213821  0.25321570  0.50683979    -0.31100
H1200       H  0.87507897  0.26507191  0.53609112     0.16500
H1201       H  0.73860556  0.12165374  0.54041674     0.16500
H1202       H  0.88152414  0.11404436  0.91594736     0.16600
H1203       H  0.73271214  0.12163077  0.91810678     0.16500
C1204       C  0.83357328  0.16654128  0.68642180     0.30400
C1205       C  0.83339532  0.16581478  0.76595181     0.30400
C1206       C  0.85618954  0.14501174  0.70597664    -0.05800
C1207       C  0.85508052  0.21149149  0.70638602    -0.06600
C1208       C  0.78840396  0.14371332  0.70590312    -0.06400
C1209       C  0.85545171  0.14447022  0.74614997    -0.05800
C1210       C  0.85474662  0.21059400  0.74686162    -0.06500
C1211       C  0.78875565  0.14369360  0.74640884    -0.06400
C1212       C  0.87623794  0.12371048  0.75851337    -0.31800
N1213       N  0.89037797  0.11223383  0.72704947     0.14700
C1214       C  0.87875591  0.12518135  0.69459310    -0.31800
H1215       H  0.88598782  0.12039840  0.66524833     0.16600
C1216       C  0.87178093  0.25230124  0.75961695    -0.30800
N1217       N  0.88361170  0.27874793  0.72859894     0.13400
C1218       C  0.87279501  0.25454704  0.69582693    -0.30800
C1219       C  0.74666046  0.12499438  0.75857667    -0.31100
N1220       N  0.72064563  0.11226065  0.72714706     0.13900
H1221       H  0.73528015  0.12078388  0.78812002     0.16500
C1222       C  0.74537534  0.12405964  0.69475484    -0.31100
H1223       H  0.73284872  0.11945523  0.66558860     0.16500
H1224       H  0.87711664  0.26742809  0.66681592     0.16500
H1225       H  0.88147900  0.11798433  0.78826172     0.16600
H1226       H  0.87464505  0.26295935  0.78932833     0.16500
C1227       C  0.66679449  0.33489796  0.56335208     0.30400
C1228       C  0.66531920  0.33308935  0.98377654     0.30400
C1229       C  0.64356667  0.35637208  0.54353526    -0.05800
C1230       C  0.71125100  0.35848273  0.54297806    -0.06600
C1231       C  0.64475031  0.28982244  0.54455206    -0.06400
C1232       C  0.64161717  0.35372571  0.00305982    -0.05800
C1233       C  0.70984190  0.35721343  0.00256571    -0.06500
C1234       C  0.64408744  0.28918554  0.00415378    -0.06400
C1235       C  0.61806300  0.37190346  0.99066153    -0.31800
N1236       N  0.60828791  0.38831165  0.52180179     0.14700
C1237       C  0.62403996  0.37968551  0.55420042    -0.31800
H1238       H  0.62168761  0.38995529  0.58306528     0.16600
C1239       C  0.75129946  0.37808644  0.98894449    -0.30800
N1240       N  0.77818319  0.39218582  0.51970635     0.13400
C1241       C  0.75467511  0.38153793  0.55280493    -0.30800
C1242       C  0.62089477  0.24673304  0.99312914    -0.31100
N1243       N  0.60915390  0.22166414  0.52515614     0.13900
H1244       H  0.61134241  0.23443236  0.96402696     0.16500
C1245       C  0.62304899  0.24733279  0.55700149    -0.31100
H1246       H  0.61756438  0.23602598  0.58664458     0.16500
H1247       H  0.76842147  0.39018754  0.58151874     0.16500
H1248       H  0.60959088  0.37446895  0.96111770     0.16600
H1249       H  0.76121226  0.38140442  0.95895073     0.16500
C1250       C  0.66478521  0.33587121  0.73384413     0.30400
C1251       C  0.66452787  0.33528659  0.81334645     0.30400
C1252       C  0.64321144  0.35842398  0.75340377    -0.05800
C1253       C  0.64266560  0.29153142  0.75305181    -0.06600
C1254       C  0.70918013  0.35876368  0.75356053    -0.06400
C1255       C  0.64083439  0.35633557  0.79376311    -0.05800
C1256       C  0.64237240  0.29050914  0.79338886    -0.06500
C1257       C  0.70926220  0.35862259  0.79391471    -0.06400
C1258       C  0.61610628  0.37424971  0.80456441    -0.31800
N1259       N  0.60756947  0.39034774  0.77239893     0.14700
C1260       C  0.62484110  0.38183738  0.74137370    -0.31800
H1261       H  0.62337480  0.39161087  0.71206818     0.16600
C1262       C  0.62158692  0.24721546  0.80371880    -0.30800
N1263       N  0.61027257  0.22326258  0.77080579     0.13400
C1264       C  0.62265735  0.24989330  0.73985347    -0.30800
C1265       C  0.75199759  0.38080451  0.80571078    -0.31100
N1266       N  0.77705000  0.39382971  0.77348922     0.13900
H1267       H  0.76389637  0.38674372  0.83518590     0.16500
C1268       C  0.75144116  0.38129536  0.74179899    -0.31100
H1269       H  0.76323535  0.38898421  0.71238750     0.16500
H1270       H  0.61813285  0.23960258  0.70990267     0.16500
H1271       H  0.60512027  0.37557034  0.83337126     0.16600
H1272       H  0.61480543  0.23386016  0.83264193     0.16500
O1273       O  0.94497251  0.01948507  0.52602276    -0.87900
C1274       C  0.93274367  0.43752195  0.93919728     0.88100
Mg1275     Mg  0.99368468  0.08589245  0.52731470     1.58100
O1276       O  0.97840698  0.42505357  0.52491244    -0.87600
O1277       O  0.92430121  0.46325518  0.56333561    -0.75000
C1278       C  0.67616783  0.09178843  0.98332788     0.93200
O1279       O  0.96675665  0.04092803  0.93517349    -0.74800
O1280       O  0.65783866  0.11359670  0.97762067    -0.82300
Mg1281     Mg  0.90879654  0.49579874  0.97268172     1.58000
C1282       C  0.58794130  0.41354193  0.51854101     0.93100
O1283       O  0.84477998  0.45038136  0.50300230    -0.80600
H1284       H  0.97453357  0.41215135  0.58154491    -0.05900
C1285       C  0.56462367  0.99888989  0.94141449     0.88000
O1286       O  0.53721090  0.07262370  0.56645538    -0.75100
O1287       O  0.92575794  0.44687801  0.97171288    -0.87800
O1288       O  0.54974740  0.39558878  0.50466247    -0.80600
C1289       C  0.91067819  0.32462399  0.97742551     0.93200
C1290       C  0.82384263  0.41209664  0.51621012     0.93100
Mg1291     Mg  0.59147970  0.00576224  0.52630034     1.58000
O1292       O  0.65566091  0.05292384  0.99566218    -0.80600
O1293       O  0.53359801  0.45963273  0.56391964    -0.74800
O1294       O  0.89281539  0.34496393  0.99020859    -0.80600
O1295       O  0.89075142  0.04747897  0.97224811    -0.82400
O1296       O  0.60415927  0.15641013  0.51043704    -0.80700
C1297       C  0.49456810  0.43093353  0.55754509     0.87500
O1298       O  0.57372876  0.05432544  0.52829177    -0.87800
O1299       O  0.55422824  0.48099218  0.97335436    -0.87900
O1300       O  0.57523685  0.03810186  0.93698524    -0.75000
Mg1301     Mg  0.91178587  0.40757093  0.52319721     1.59000
O1302       O  0.95122539  0.34304618  0.97160998    -0.82400
H1303       H  0.93584963  0.02128985  0.58288641    -0.06100
O1304       O  0.52079310  0.07573165  0.97522929    -0.87600
H1305       H  0.52604422  0.08876198  0.91858400    -0.05900
H1306       H  0.58337315  0.06054282  0.58551150    -0.06100
C1307       C  0.00543530  0.06990105  0.94227185     0.87500
C1308       C  0.93450223  0.50219316  0.55818467     0.88100
C1309       C  0.56607533  0.06288419  0.56089448     0.88100
H1310       H  0.56327650  0.48026231  0.91634204    -0.06100
O1311       O  0.96122189  0.42727952  0.93362602    -0.75100
Mg1312     Mg  0.58720641  0.09397789  0.97719179     1.58000
H1313       H  0.91524626  0.43965268  0.91464073    -0.06100
C1314       C  0.91234124  0.08737008  0.98067025     0.93100
O1315       O  0.54479224  0.15631334  0.52917166    -0.82300
C1316       C  0.58518947  0.17572689  0.52322886     0.93100
O1317       O  0.84147208  0.38972445  0.52269566    -0.82300
Mg1318     Mg  0.50457981  0.41392413  0.97278835     1.58200
O1319       O  0.94980874  0.10480643  0.99576288    -0.80600
O1320       O  0.60992083  0.45383974  0.52572725    -0.82300
O1321       O  0.51673226  0.44613877  0.72357820    -0.87900
C1322       C  0.93420917  0.43460138  0.80987975     0.88100
Mg1323     Mg  0.58406985  0.49493647  0.72391452     1.58100
O1324       O  0.92404714  0.48146843  0.72396562    -0.87600
O1325       O  0.96045883  0.42565566  0.68617196    -0.75000
C1326       C  0.58980056  0.17749120  0.76754347     0.93200
O1327       O  0.53679849  0.46599771  0.81445428    -0.74800
O1328       O  0.61162344  0.15932688  0.77430496    -0.82300
Mg1329     Mg  0.99100556  0.40858357  0.77611800     1.58000
C1330       C  0.91490268  0.09136359  0.72980715     0.93100
O1331       O  0.94369414  0.34481530  0.74467949    -0.80600
H1332       H  0.91247259  0.47739888  0.66705430    -0.05900
C1333       C  0.49732701  0.06689280  0.80824890     0.88000
O1334       O  0.57244928  0.03921383  0.68453802    -0.75100
O1335       O  0.94301008  0.42697205  0.77737454    -0.87800
O1336       O  0.89662261  0.05349467  0.74405860    -0.80600
C1337       C  0.82297981  0.41757717  0.77105146     0.93200
C1338       C  0.90498174  0.32469290  0.73189522     0.93100
Mg1339     Mg  0.50582804  0.09355330  0.72305142     1.58000
O1340       O  0.55152272  0.15695962  0.75414745    -0.80600
O1341       O  0.96046771  0.03610568  0.68487232    -0.74800
O1342       O  0.84190932  0.39833704  0.75800996    -0.80600
O1343       O  0.54233628  0.38932461  0.77628493    -0.82400
O1344       O  0.65503921  0.10611823  0.74270583    -0.80700
C1345       C  0.93094685  0.99743670  0.69120989     0.87500
O1346       O  0.55395001  0.07563262  0.72254153    -0.87800
O1347       O  0.98052283  0.05653689  0.77586222    -0.87900
O1348       O  0.53612250  0.07685660  0.81397672    -0.75000
Mg1349     Mg  0.90439900  0.41455573  0.72558421     1.58000
O1350       O  0.84281480  0.45797854  0.77724416    -0.82400
H1351       H  0.51843100  0.43687703  0.66670000    -0.06100
O1352       O  0.57312519  0.02144009  0.77608982    -0.87600
H1353       H  0.58439176  0.02459068  0.83302537    -0.05900
H1354       H  0.56191440  0.08639998  0.66555653    -0.06100
C1355       C  0.56609934  0.50492120  0.80862895     0.87500
C1356       C  0.99944672  0.43583573  0.69135449     0.88100
C1357       C  0.56326824  0.06845154  0.69009406     0.88100
H1358       H  0.97796096  0.06578485  0.83261432    -0.06100
O1359       O  0.92529823  0.46405487  0.81540962    -0.75100
Mg1360     Mg  0.59214991  0.08848862  0.77468297     1.58000
H1361       H  0.93571701  0.41680640  0.83447184    -0.06100
C1362       C  0.58268134  0.41101923  0.76936819     0.93100
O1363       O  0.65535556  0.04705954  0.72349412    -0.82300
C1364       C  0.67463502  0.08756762  0.72975754     0.93100
O1365       O  0.88360755  0.34344837  0.72587524    -0.82300
Mg1366     Mg  0.91367585  0.00845923  0.77607491     1.58200
O1367       O  0.60104627  0.44925740  0.75573186    -0.80600
O1368       O  0.95503189  0.11277931  0.72237128    -0.82300
C1369       C  0.66721728  0.33635691  0.85749838    -0.05000
C1370       C  0.67310642  0.30557280  0.87728995    -0.32500
C1371       C  0.67414927  0.30468995  0.91790018     0.36800
C1372       C  0.66748462  0.33411088  0.93952827    -0.05400
C1373       C  0.67228820  0.37041710  0.91967286    -0.32400
C1374       C  0.67270032  0.37210551  0.87912834     0.36700
H1375       H  0.67906734  0.28330291  0.86133084     0.17100
O1376       O  0.68688015  0.27888786  0.93592947    -0.59900
H1377       H  0.67759034  0.39859715  0.93555873     0.17100
O1378       O  0.68328394  0.41030951  0.86109006    -0.60000
H1379       H  0.66511013  0.42068875  0.87295924     0.44100
H1380       H  0.67014524  0.24987368  0.92395306     0.44000
C1381       C  0.66366560  0.33324581  0.68960246    -0.05000
C1382       C  0.69481117  0.32798923  0.66981149    -0.32500
C1383       C  0.69578271  0.32714732  0.62921120     0.36800
C1384       C  0.66582192  0.33298866  0.60754575    -0.05400
C1385       C  0.62939401  0.32783414  0.62737069    -0.32400
C1386       C  0.62753487  0.32682739  0.66793884     0.36700
H1387       H  0.71740928  0.32244862  0.68577708     0.17100
O1388       O  0.72252783  0.31568906  0.61117713    -0.59900
H1389       H  0.60114810  0.32234979  0.61145520     0.17100
O1390       O  0.58887546  0.31444013  0.68593365    -0.60000
H1391       H  0.57704616  0.33131940  0.67391341     0.44100
H1392       H  0.75132990  0.33274426  0.62352004     0.44000
C1393       C  0.83436782  0.16270436  0.89222379    -0.05000
C1394       C  0.87080958  0.19383599  0.87185781    -0.32500
C1395       C  0.87191369  0.19401355  0.83139756     0.36800
C1396       C  0.83512079  0.16412834  0.81015470    -0.05400
C1397       C  0.80358347  0.12782335  0.83040402    -0.32400
C1398       C  0.80328961  0.12649692  0.87105527     0.36700
H1399       H  0.89935235  0.21734373  0.88728333     0.17100
O1400       O  0.90989259  0.22210740  0.81322519    -0.59900
H1401       H  0.78001234  0.09949041  0.81479777     0.17100
O1402       O  0.77583970  0.08835425  0.88958066    -0.60000
H1403       H  0.74684960  0.07726167  0.87800673     0.44100
H1404       H  0.92490223  0.20569781  0.80939697     0.44000
C1405       C  0.83522190  0.16534664  0.64226035    -0.05000
C1406       C  0.87096357  0.19806712  0.62225771    -0.32500
C1407       C  0.87304877  0.19826911  0.58163320     0.36800
C1408       C  0.83774820  0.16633626  0.56018385    -0.05400
C1409       C  0.80765540  0.12914609  0.58038045    -0.32400
C1410       C  0.80647683  0.12810274  0.62096424     0.36700
H1411       H  0.89851792  0.22253212  0.63810509     0.17100
O1412       O  0.91126331  0.22630193  0.56347734    -0.59900
H1413       H  0.78562266  0.10008755  0.56471790     0.17100
O1414       O  0.78029869  0.08958623  0.63950384    -0.60000
H1415       H  0.75129883  0.07697671  0.62749371     0.44100
H1416       H  0.92220903  0.25508959  0.57548160     0.44000
C1417       C  0.83568183  0.66709990  0.01592704     0.30400
C1418       C  0.83366771  0.66486546  0.43638202     0.30400
C1419       C  0.85870212  0.64650737  0.99640578    -0.05800
C1420       C  0.79057356  0.64299281  0.99733500    -0.06600
C1421       C  0.85511680  0.71108776  0.99554354    -0.06400
C1422       C  0.85715409  0.64435636  0.45618605    -0.05800
C1423       C  0.78909627  0.64252030  0.45689543    -0.06500
C1424       C  0.85551844  0.71049338  0.45505386    -0.06400
C1425       C  0.87741181  0.62212688  0.44508207    -0.31800
N1426       N  0.89208733  0.61249988  0.97768402     0.14700
C1427       C  0.88071323  0.62703230  0.00898306    -0.31800
H1428       H  0.88677101  0.62235845  0.03879407     0.16600
C1429       C  0.74592253  0.62488620  0.44689214    -0.30800
N1430       N  0.72210161  0.61298944  0.47984683     0.13400
C1431       C  0.74888218  0.62458747  0.01057495    -0.30800
C1432       C  0.87519131  0.75329353  0.44312269    -0.31100
N1433       N  0.88544856  0.77862651  0.47507746     0.13900
H1434       H  0.88133387  0.76532905  0.41373941     0.16500
C1435       C  0.87182834  0.75321871  0.00683127    -0.31100
H1436       H  0.87474773  0.76507524  0.03608066     0.16500
H1437       H  0.73851017  0.62148359  0.04038090     0.16500
H1438       H  0.88114073  0.61364009  0.41587653     0.16600
H1439       H  0.73275063  0.62182721  0.41814219     0.16500
C1440       C  0.83361071  0.66654559  0.18642627     0.30400
C1441       C  0.83338818  0.66579899  0.26594836     0.30400
C1442       C  0.85621633  0.64501130  0.20598936    -0.05800
C1443       C  0.85510227  0.71149116  0.20639652    -0.06600
C1444       C  0.78843234  0.64370943  0.20588228    -0.06400
C1445       C  0.85545357  0.64445599  0.24616186    -0.05800
C1446       C  0.85475656  0.71058147  0.24686996    -0.06500
C1447       C  0.78875358  0.64368492  0.24638564    -0.06400
C1448       C  0.87624458  0.62370504  0.25853612    -0.31800
N1449       N  0.89040670  0.61224568  0.22707686     0.14700
C1450       C  0.87880461  0.62520310  0.19461588    -0.31800
H1451       H  0.88607019  0.62044638  0.16527507     0.16600
C1452       C  0.87174385  0.75227652  0.25963855    -0.30800
N1453       N  0.88353293  0.77873009  0.22862845     0.13400
C1454       C  0.87275084  0.75454277  0.19584984    -0.30800
C1455       C  0.74664141  0.62497799  0.25851884    -0.31100
N1456       N  0.72065172  0.61223706  0.22706792     0.13900
H1457       H  0.73523354  0.62077037  0.28805276     0.16500
C1458       C  0.74541495  0.62403524  0.19469668    -0.31100
H1459       H  0.73292171  0.61941151  0.16551628     0.16500
H1460       H  0.87704463  0.76743042  0.16684403     0.16500
H1461       H  0.88147998  0.61797954  0.28828664     0.16600
H1462       H  0.87459774  0.76291928  0.28935418     0.16500
C1463       C  0.66697689  0.83506019  0.06327714     0.30400
C1464       C  0.66514355  0.83302052  0.48386075     0.30400
C1465       C  0.64350907  0.85626331  0.04342487    -0.05800
C1466       C  0.71140960  0.85886093  0.04288453    -0.06600
C1467       C  0.64516268  0.78996341  0.04450412    -0.06400
C1468       C  0.64168864  0.85388735  0.50316872    -0.05800
C1469       C  0.70967512  0.85690984  0.50265826    -0.06500
C1470       C  0.64365212  0.78908902  0.50420682    -0.06400
C1471       C  0.61825290  0.87218817  0.49078837    -0.31800
N1472       N  0.60805266  0.88801294  0.02166465     0.14700
C1473       C  0.62389175  0.87949421  0.05406323    -0.31800
H1474       H  0.62158700  0.88983184  0.08291173     0.16600
C1475       C  0.75112590  0.87775741  0.48902677    -0.30800
N1476       N  0.77833579  0.89265868  0.01963557     0.13400
C1477       C  0.75481773  0.88207296  0.05271553    -0.30800
C1478       C  0.62034147  0.74665218  0.49315717    -0.31100
N1479       N  0.60969865  0.72177542  0.02514906     0.13900
H1480       H  0.61078235  0.73438050  0.46404872     0.16500
C1481       C  0.62350434  0.74747935  0.05697810    -0.31100
H1482       H  0.61791681  0.73620041  0.08663012     0.16500
H1483       H  0.76855737  0.89082972  0.08142264     0.16500
H1484       H  0.60976500  0.87476403  0.46125348     0.16600
H1485       H  0.76101968  0.88119944  0.45902059     0.16500
C1486       C  0.66491302  0.83593870  0.23386206     0.30400
C1487       C  0.66455131  0.83529679  0.31338606     0.30400
C1488       C  0.64331245  0.85847486  0.25340702    -0.05800
C1489       C  0.64275969  0.79158690  0.25305535    -0.06600
C1490       C  0.70927890  0.85881767  0.25363618    -0.06400
C1491       C  0.64089093  0.85636712  0.29376907    -0.05800
C1492       C  0.64240999  0.79053644  0.29339694    -0.06500
C1493       C  0.70931532  0.85864143  0.29399535    -0.06400
C1494       C  0.61612558  0.87425115  0.30453982    -0.31800
N1495       N  0.60758917  0.89033336  0.27236069     0.14700
C1496       C  0.62490153  0.88184356  0.24135115    -0.31800
H1497       H  0.62342994  0.89159125  0.21203688     0.16600
C1498       C  0.62155435  0.74723302  0.30370486    -0.30800
N1499       N  0.61027053  0.72330381  0.27078003     0.13400
C1500       C  0.62272110  0.74995547  0.23984030    -0.30800
C1501       C  0.75204581  0.88084462  0.30582426    -0.31100
N1502       N  0.77712915  0.89392913  0.27361924     0.13900
H1503       H  0.76391857  0.88676196  0.33530785     0.16500
C1504       C  0.75154953  0.88141703  0.24191467    -0.31100
H1505       H  0.76337866  0.88918555  0.21251936     0.16500
H1506       H  0.61822109  0.73968181  0.20988585     0.16500
H1507       H  0.60510577  0.87555323  0.33333658     0.16600
H1508       H  0.61469894  0.73385134  0.33261824     0.16500
O1509       O  0.94519998  0.51975554  0.02611518    -0.87900
C1510       C  0.93277695  0.93736934  0.43911150     0.88100
Mg1511     Mg  0.99397378  0.58614969  0.02737511     1.58100
O1512       O  0.97830598  0.92492696  0.02497777    -0.87600
O1513       O  0.92452759  0.96344487  0.06335069    -0.75000
C1514       C  0.67622678  0.59202828  0.48336646     0.93200
O1515       O  0.96659600  0.54077309  0.43512538    -0.74800
O1516       O  0.65785046  0.61379313  0.47762446    -0.82300
Mg1517     Mg  0.90860648  0.99549243  0.47256990     1.58000
C1518       C  0.58772482  0.91326889  0.01841175     0.93100
O1519       O  0.84499824  0.95086640  0.00316725    -0.80600
H1520       H  0.97442296  0.91210487  0.08162938    -0.05900
C1521       C  0.56477293  0.49903260  0.44134120     0.88000
O1522       O  0.53743589  0.57277908  0.06651410    -0.75100
O1523       O  0.92569498  0.94667521  0.47161758    -0.87800
O1524       O  0.54956166  0.89537041  0.00447383    -0.80600
C1525       C  0.91090764  0.82462253  0.47744492     0.93200
C1526       C  0.82398703  0.91251894  0.01620881     0.93100
Mg1527     Mg  0.59138631  0.50559746  0.02633613     1.58000
O1528       O  0.65574897  0.55316747  0.49570203    -0.80600
O1529       O  0.53349096  0.95956516  0.06399174    -0.74800
O1530       O  0.89298728  0.84490359  0.49022478    -0.80600
O1531       O  0.89041793  0.54706016  0.47213629    -0.82400
O1532       O  0.60444123  0.65639757  0.01046410    -0.80700
C1533       C  0.49446562  0.93084871  0.05761753     0.87500
O1534       O  0.57377911  0.55427390  0.02834550    -0.87800
O1535       O  0.55439046  0.98111894  0.47327933    -0.87900
O1536       O  0.57530891  0.53822581  0.43692099    -0.75000
Mg1537     Mg  0.91176768  0.90768140  0.02321209     1.59000
O1538       O  0.95146234  0.84310238  0.47164979    -0.82400
H1539       H  0.93631695  0.52151581  0.08302862    -0.06100
O1540       O  0.52063484  0.57562723  0.47517407    -0.87600
H1541       H  0.52584788  0.58868718  0.41853641    -0.05900
H1542       H  0.58349650  0.56054051  0.08555658    -0.06100
C1543       C  0.00526325  0.56978737  0.44222176     0.87500
C1544       C  0.93482148  0.00242339  0.05827061     0.88100
C1545       C  0.56620630  0.56291103  0.06094742     0.88100
H1546       H  0.56348532  0.98043805  0.41626348    -0.06100
O1547       O  0.96135669  0.92725339  0.43357154    -0.75100
Mg1548     Mg  0.58712472  0.59403969  0.47715217     1.58000
H1549       H  0.91527802  0.93944729  0.41453038    -0.06100
C1550       C  0.91198007  0.58694578  0.48058429     0.93100
O1551       O  0.54520356  0.65654212  0.02920366    -0.82300
C1552       C  0.58559625  0.67583577  0.02325379     0.93100
O1553       O  0.84153652  0.89005662  0.02260576    -0.82300
Mg1554     Mg  0.50475777  0.91402009  0.47279577     1.58200
O1555       O  0.94943284  0.60439709  0.49570583    -0.80600
O1556       O  0.60968115  0.95354070  0.02573152    -0.82300
O1557       O  0.51670007  0.94609679  0.22359112    -0.87900
C1558       C  0.93428676  0.93466190  0.30997309     0.88100
Mg1559     Mg  0.58403689  0.99490656  0.22387564     1.58100
O1560       O  0.92416408  0.98151645  0.22406152    -0.87600
O1561       O  0.96043037  0.92559485  0.18619229    -0.75000
C1562       C  0.58981076  0.67753635  0.26749494     0.93200
O1563       O  0.53687568  0.96603292  0.31440753    -0.74800
O1564       O  0.61164636  0.65937711  0.27422345    -0.82300
Mg1565     Mg  0.99100848  0.90856816  0.27614628     1.58000
C1566       C  0.91495306  0.59140251  0.22983792     0.93100
O1567       O  0.94358382  0.84478062  0.24479013    -0.80600
H1568       H  0.91244082  0.97737152  0.16717700    -0.05900
C1569       C  0.49744187  0.56697004  0.30825624     0.88000
O1570       O  0.57232726  0.53912760  0.18449347    -0.75100
O1571       O  0.94301549  0.92695643  0.27746340    -0.87800
O1572       O  0.89669239  0.55353009  0.24408257    -0.80600
C1573       C  0.82306083  0.91766258  0.27118077     0.93200
C1574       C  0.90489780  0.82467364  0.23193945     0.93100
Mg1575     Mg  0.50583584  0.59360032  0.22303670     1.58000
O1576       O  0.55153426  0.65700572  0.25410363    -0.80600
O1577       O  0.96042269  0.53612797  0.18490826    -0.74800
O1578       O  0.84196503  0.89842388  0.25807784    -0.80600
O1579       O  0.54233325  0.88928259  0.27621802    -0.82400
O1580       O  0.65504298  0.60616220  0.24250841    -0.80700
C1581       C  0.93096211  0.49744747  0.19129635     0.87500
O1582       O  0.55393281  0.57565943  0.22247064    -0.87800
O1583       O  0.98060373  0.55662637  0.27588192    -0.87900
O1584       O  0.53623507  0.57691072  0.31394458    -0.75000
Mg1585     Mg  0.90442426  0.91458135  0.22564329     1.58000
O1586       O  0.84291537  0.95805985  0.27739106    -0.82400
H1587       H  0.51838293  0.93674641  0.16672984    -0.06100
O1588       O  0.57313546  0.52146462  0.27601244    -0.87600
H1589       H  0.58445830  0.52465274  0.33293813    -0.05900
H1590       H  0.56172472  0.58625003  0.16545381    -0.06100
C1591       C  0.56614737  0.00496455  0.30855763     0.87500
C1592       C  0.99940958  0.93575352  0.19137503     0.88100
C1593       C  0.56315374  0.56837717  0.19001928     0.88100
H1594       H  0.97810465  0.56586107  0.33264611    -0.06100
O1595       O  0.92544152  0.96416552  0.31549276    -0.75100
Mg1596     Mg  0.59218966  0.58853045  0.27457650     1.58000
H1597       H  0.93581376  0.91689585  0.33458063    -0.06100
C1598       C  0.58268385  0.91099098  0.26931667     0.93100
O1599       O  0.65533602  0.54704825  0.22343764    -0.82300
C1600       C  0.67463257  0.58757000  0.22964097     0.93100
O1601       O  0.88354683  0.84344434  0.22586411    -0.82300
Mg1602     Mg  0.91377856  0.50853676  0.27614560     1.58200
O1603       O  0.60105009  0.94924785  0.25571627    -0.80600
O1604       O  0.95507828  0.61284279  0.22240366    -0.82300
C1605       C  0.66716061  0.83632387  0.35755669    -0.05000
C1606       C  0.67289315  0.80545180  0.37737491    -0.32500
C1607       C  0.67383704  0.80451957  0.41798961     0.36800
C1608       C  0.66731012  0.83403833  0.43960882    -0.05400
C1609       C  0.67223882  0.87038877  0.41974203    -0.32400
C1610       C  0.67266842  0.87207858  0.37919448     0.36700
H1611       H  0.67880506  0.78313681  0.36143926     0.17100
O1612       O  0.68631100  0.77852356  0.43604273    -0.59900
H1613       H  0.67762007  0.89860154  0.43561803     0.17100
O1614       O  0.68326022  0.91028484  0.36116015    -0.60000
H1615       H  0.66504564  0.92063339  0.37299640     0.44100
H1616       H  0.66949083  0.74954464  0.42401616     0.44000
C1617       C  0.66384946  0.83336453  0.18959572    -0.05000
C1618       C  0.69513213  0.82834514  0.16978400    -0.32500
C1619       C  0.69617282  0.82761391  0.12917526     0.36800
C1620       C  0.66605847  0.83321602  0.10749435    -0.05400
C1621       C  0.62957145  0.82789639  0.12733556    -0.32400
C1622       C  0.62769508  0.82684573  0.16791102     0.36700
H1623       H  0.71779766  0.82289351  0.18573184     0.17100
O1624       O  0.72319522  0.81651563  0.11114481    -0.59900
H1625       H  0.60128820  0.82231080  0.11142503     0.17100
O1626       O  0.58900607  0.81434283  0.18589495    -0.60000
H1627       H  0.57714692  0.83121823  0.17392207     0.44100
H1628       H  0.75194019  0.83370630  0.12356068     0.44000
C1629       C  0.83433517  0.66270458  0.39221089    -0.05000
C1630       C  0.87078406  0.69382134  0.37184396    -0.32500
C1631       C  0.87189630  0.69399111  0.33138735     0.36800
C1632       C  0.83510150  0.66411801  0.31014499    -0.05400
C1633       C  0.80353556  0.62783422  0.33039101    -0.32400
C1634       C  0.80322030  0.62651776  0.37104050     0.36700
H1635       H  0.89934241  0.71730641  0.38726416     0.17100
O1636       O  0.90989191  0.72204159  0.31321535    -0.59900
H1637       H  0.77995087  0.59950934  0.31478487     0.17100
O1638       O  0.77568296  0.58840347  0.38956298    -0.60000
H1639       H  0.74670927  0.57739191  0.37797847     0.44100
H1640       H  0.92507866  0.70574766  0.30979242     0.44000
C1641       C  0.83524692  0.66534771  0.14227006    -0.05000
C1642       C  0.87090532  0.69813171  0.12223859    -0.32500
C1643       C  0.87293037  0.69833052  0.08161438     0.36800
C1644       C  0.83763245  0.66635892  0.06019570    -0.05400
C1645       C  0.80762570  0.62913040  0.08040906    -0.32400
C1646       C  0.80654948  0.62806862  0.12099662     0.36700
H1647       H  0.89845739  0.72263691  0.13805771     0.17100
O1648       O  0.91110493  0.72639311  0.06341961    -0.59900
H1649       H  0.78561725  0.60005254  0.06475880     0.17100
O1650       O  0.78053859  0.58952139  0.13955811    -0.60000
H1651       H  0.75148987  0.57682163  0.12763585     0.44100
H1652       H  0.92200508  0.75518765  0.07539262     0.44000
C1653       C  0.83578101  0.66708708  0.51591420     0.30400
C1654       C  0.83365508  0.66487762  0.93639496     0.30400
C1655       C  0.85864081  0.64635302  0.49635974    -0.05800
C1656       C  0.79064449  0.64311243  0.49734716    -0.06600
C1657       C  0.85534456  0.71108087  0.49553794    -0.06400
C1658       C  0.85726905  0.64452559  0.95623345    -0.05800
C1659       C  0.78905745  0.64239789  0.95688197    -0.06500
C1660       C  0.85535502  0.71049897  0.95505960    -0.06400
C1661       C  0.87772432  0.62248431  0.94514928    -0.31800
N1662       N  0.89171939  0.61206406  0.47760746     0.14700
C1663       C  0.88050684  0.62672680  0.50891568    -0.31800
H1664       H  0.88659657  0.62206323  0.53871990     0.16600
C1665       C  0.74587541  0.62468518  0.94686069    -0.30800
N1666       N  0.72203610  0.61272828  0.97980700     0.13400
C1667       C  0.74896149  0.62477815  0.51060450    -0.30800
C1668       C  0.87501860  0.75329326  0.94312052    -0.31100
N1669       N  0.88516487  0.77862830  0.97506425     0.13900
H1670       H  0.88126456  0.76532675  0.91373732     0.16500
C1671       C  0.87213813  0.75321565  0.50683986    -0.31100
H1672       H  0.87507886  0.76507182  0.53609119     0.16500
H1673       H  0.73860552  0.62165377  0.54041670     0.16500
H1674       H  0.88152420  0.61404442  0.91594725     0.16600
H1675       H  0.73271218  0.62163093  0.91810681     0.16500
C1676       C  0.83357325  0.66654118  0.68642180     0.30400
C1677       C  0.83339534  0.66581478  0.76595180     0.30400
C1678       C  0.85618957  0.64501172  0.70597671    -0.05800
C1679       C  0.85508044  0.71149140  0.70638597    -0.06600
C1680       C  0.78840393  0.64371324  0.70590313    -0.06400
C1681       C  0.85545175  0.64447022  0.74615001    -0.05800
C1682       C  0.85474658  0.71059397  0.74686156    -0.06500
C1683       C  0.78875567  0.64369353  0.74640885    -0.06400
C1684       C  0.87623789  0.62371041  0.75851347    -0.31800
N1685       N  0.89037796  0.61223379  0.72704960     0.14700
C1686       C  0.87875595  0.62518133  0.69459322    -0.31800
H1687       H  0.88598786  0.62039832  0.66524851     0.16600
C1688       C  0.87178085  0.75230120  0.75961684    -0.30800
N1689       N  0.88361158  0.77874786  0.72859883     0.13400
C1690       C  0.87279491  0.75454694  0.69582685    -0.30800
C1691       C  0.74666051  0.62499434  0.75857674    -0.31100
N1692       N  0.72064563  0.61226074  0.72714718     0.13900
H1693       H  0.73528025  0.62078380  0.78812012     0.16500
C1694       C  0.74537530  0.62405969  0.69475491    -0.31100
H1695       H  0.73284861  0.61945529  0.66558867     0.16500
H1696       H  0.87711658  0.76742796  0.66681584     0.16500
H1697       H  0.88147890  0.61798418  0.78826180     0.16600
H1698       H  0.87464501  0.76295935  0.78932821     0.16500
C1699       C  0.66679438  0.83489788  0.56335208     0.30400
C1700       C  0.66531926  0.83308950  0.98377652     0.30400
C1701       C  0.64356662  0.85637211  0.54353532    -0.05800
C1702       C  0.71125088  0.85848265  0.54297806    -0.06600
C1703       C  0.64475015  0.78982236  0.54455201    -0.06400
C1704       C  0.64161720  0.85372580  0.00305980    -0.05800
C1705       C  0.70984191  0.85721354  0.00256576    -0.06500
C1706       C  0.64408748  0.78918564  0.00415367    -0.06400
C1707       C  0.61806301  0.87190353  0.99066152    -0.31800
N1708       N  0.60828780  0.88831165  0.52180195     0.14700
C1709       C  0.62403993  0.87968556  0.55420054    -0.31800
H1710       H  0.62168759  0.88995529  0.58306546     0.16600
C1711       C  0.75129950  0.87808652  0.98894461    -0.30800
N1712       N  0.77818306  0.89218591  0.51970634     0.13400
C1713       C  0.75467499  0.88153795  0.55280492    -0.30800
C1714       C  0.62089490  0.74673317  0.99312896    -0.31100
N1715       N  0.60915386  0.72166406  0.52515604     0.13900
H1716       H  0.61134267  0.73443252  0.96402672     0.16500
C1717       C  0.62304887  0.74733269  0.55700142    -0.31100
H1718       H  0.61756425  0.73602582  0.58664452     0.16500
H1719       H  0.76842129  0.89018753  0.58151874     0.16500
H1720       H  0.60959095  0.87446903  0.96111767     0.16600
H1721       H  0.76121237  0.88140448  0.95895091     0.16500
C1722       C  0.66478522  0.83587124  0.73384412     0.30400
C1723       C  0.66452794  0.83528668  0.81334643     0.30400
C1724       C  0.64321152  0.85842408  0.75340374    -0.05800
C1725       C  0.64266561  0.79153146  0.75305181    -0.06600
C1726       C  0.70918014  0.85876364  0.75356051    -0.06400
C1727       C  0.64083450  0.85633570  0.79376309    -0.05800
C1728       C  0.64237241  0.79050920  0.79338887    -0.06500
C1729       C  0.70926228  0.85862260  0.79391468    -0.06400
C1730       C  0.61610631  0.87424978  0.80456436    -0.31800
N1731       N  0.60756942  0.89034772  0.77239886     0.14700
C1732       C  0.62484109  0.88183738  0.74137364    -0.31800
H1733       H  0.62337473  0.89161082  0.71206811     0.16600
C1734       C  0.62158690  0.74721553  0.80371882    -0.30800
N1735       N  0.61027252  0.72326262  0.77080581     0.13400
C1736       C  0.62265735  0.74989333  0.73985348    -0.30800
C1737       C  0.75199771  0.88080457  0.80571070    -0.31100
N1738       N  0.77705002  0.89382972  0.77348912     0.13900
H1739       H  0.76389655  0.88674389  0.83518583     0.16500
C1740       C  0.75144114  0.88129533  0.74179892    -0.31100
H1741       H  0.76323522  0.88898423  0.71238742     0.16500
H1742       H  0.61813284  0.73960256  0.70990268     0.16500
H1743       H  0.60512029  0.87557039  0.83337122     0.16600
H1744       H  0.61480546  0.73386020  0.83264195     0.16500
O1745       O  0.94497266  0.51948506  0.52602271    -0.87900
C1746       C  0.93274362  0.93752196  0.93919741     0.88100
Mg1747     Mg  0.99368485  0.58589244  0.52731467     1.58100
O1748       O  0.97840681  0.92505356  0.52491257    -0.87600
O1749       O  0.92430086  0.96325511  0.56333564    -0.75000
C1750       C  0.67616779  0.59178838  0.98332786     0.93200
O1751       O  0.96675656  0.54092805  0.93517339    -0.74800
O1752       O  0.65783858  0.61359662  0.97762065    -0.82300
Mg1753     Mg  0.90879653  0.99579872  0.97268186     1.58000
C1754       C  0.58794112  0.91354188  0.51854113     0.93100
O1755       O  0.84477992  0.95038141  0.50300238    -0.80600
H1756       H  0.97453333  0.91215132  0.58154503    -0.05900
C1757       C  0.56462354  0.49888981  0.94141438     0.88000
O1758       O  0.53721093  0.57262358  0.56645532    -0.75100
O1759       O  0.92575784  0.94687796  0.97171303    -0.87800
O1760       O  0.54974728  0.89558877  0.50466250    -0.80600
C1761       C  0.91067814  0.82462405  0.97742578     0.93200
C1762       C  0.82384251  0.91209667  0.51621013     0.93100
Mg1763     Mg  0.59147985  0.50576227  0.52630025     1.58000
O1764       O  0.65566090  0.55292378  0.99566206    -0.80600
O1765       O  0.53359780  0.95963270  0.56391987    -0.74800
O1766       O  0.89281530  0.84496392  0.99020886    -0.80600
O1767       O  0.89075141  0.54747901  0.97224790    -0.82400
O1768       O  0.60415928  0.65641005  0.51043683    -0.80700
C1769       C  0.49456791  0.93093352  0.55754522     0.87500
O1770       O  0.57372881  0.55432541  0.52829162    -0.87800
O1771       O  0.55422840  0.98099219  0.97335445    -0.87900
O1772       O  0.57523673  0.53810176  0.93698505    -0.75000
Mg1773     Mg  0.91178562  0.90757085  0.52319735     1.59000
O1774       O  0.95122535  0.84304627  0.97161026    -0.82400
H1775       H  0.93584971  0.52128987  0.58288633    -0.06100
O1776       O  0.52079317  0.57573181  0.97522906    -0.87600
H1777       H  0.52604426  0.58876196  0.91858375    -0.05900
H1778       H  0.58337317  0.56054272  0.58551138    -0.06100
C1779       C  0.00543522  0.56990101  0.94227173     0.87500
C1780       C  0.93450205  0.00219317  0.55818472     0.88100
C1781       C  0.56607541  0.56288412  0.56089435     0.88100
H1782       H  0.56327662  0.98026252  0.91634206    -0.06100
O1783       O  0.96122192  0.92727964  0.93362613    -0.75100
Mg1784     Mg  0.58720639  0.59397794  0.97719159     1.58000
H1785       H  0.91524623  0.93965276  0.91464090    -0.06100
C1786       C  0.91234125  0.58737010  0.98067013     0.93100
O1787       O  0.54479227  0.65631321  0.52917164    -0.82300
C1788       C  0.58518949  0.67572679  0.52322874     0.93100
O1789       O  0.84147186  0.88972439  0.52269567    -0.82300
Mg1790     Mg  0.50457979  0.91392417  0.97278847     1.58200
O1791       O  0.94980871  0.60480635  0.99576285    -0.80600
O1792       O  0.60992065  0.95383970  0.52572735    -0.82300
O1793       O  0.51673225  0.94613873  0.72357817    -0.87900
C1794       C  0.93420919  0.93460142  0.80987966     0.88100
Mg1795     Mg  0.58406981  0.99493639  0.72391442     1.58100
O1796       O  0.92404699  0.98146834  0.72396536    -0.87600
O1797       O  0.96045898  0.92565574  0.68617195    -0.75000
C1798       C  0.58980049  0.67749124  0.76754354     0.93200
O1799       O  0.53679864  0.96599775  0.81445425    -0.74800
O1800       O  0.61162339  0.65932692  0.77430495    -0.82300
Mg1801     Mg  0.99100560  0.90858355  0.77611795     1.58000
C1802       C  0.91490267  0.59136358  0.72980728     0.93100
O1803       O  0.94369405  0.84481516  0.74467951    -0.80600
H1804       H  0.91247252  0.97739882  0.66705401    -0.05900
C1805       C  0.49732698  0.56689274  0.80824908     0.88000
O1806       O  0.57244934  0.53921392  0.68453819    -0.75100
O1807       O  0.94301017  0.92697206  0.77737449    -0.87800
O1808       O  0.89662267  0.55349474  0.74405887    -0.80600
C1809       C  0.82297984  0.91757723  0.77105126     0.93200
C1810       C  0.90498172  0.82469282  0.73189511     0.93100
Mg1811     Mg  0.50582795  0.59355326  0.72305158     1.58000
O1812       O  0.55152259  0.65695962  0.75414764    -0.80600
O1813       O  0.96046770  0.53610578  0.68487254    -0.74800
O1814       O  0.84190938  0.89833707  0.75800990    -0.80600
O1815       O  0.54233619  0.88932454  0.77628467    -0.82400
O1816       O  0.65503918  0.60611822  0.74270608    -0.80700
C1817       C  0.93094690  0.49743677  0.69121016     0.87500
O1818       O  0.55395003  0.57563272  0.72254165    -0.87800
O1819       O  0.98052280  0.55653691  0.77586237    -0.87900
O1820       O  0.53612246  0.57685651  0.81397682    -0.75000
Mg1821     Mg  0.90439904  0.91455570  0.72558412     1.58000
O1822       O  0.84281475  0.95797861  0.77724384    -0.82400
H1823       H  0.51843119  0.93687725  0.66669997    -0.06100
O1824       O  0.57312518  0.52144011  0.77608997    -0.87600
H1825       H  0.58439152  0.52459052  0.83302559    -0.05900
H1826       H  0.56191449  0.58640002  0.66555662    -0.06100
C1827       C  0.56609947  0.00492123  0.80862884     0.87500
C1828       C  0.99944687  0.93583584  0.69135446     0.88100
C1829       C  0.56326830  0.56845164  0.69009421     0.88100
H1830       H  0.97796103  0.56578504  0.83261444    -0.06100
O1831       O  0.92529805  0.96405476  0.81540941    -0.75100
Mg1832     Mg  0.59214986  0.58848862  0.77468309     1.58000
H1833       H  0.93571705  0.91680646  0.83447178    -0.06100
C1834       C  0.58268131  0.91101921  0.76936806     0.93100
O1835       O  0.65535560  0.54705959  0.72349432    -0.82300
C1836       C  0.67463502  0.58756767  0.72975774     0.93100
O1837       O  0.88360758  0.84344835  0.72587505    -0.82300
Mg1838     Mg  0.91367591  0.50845925  0.77607518     1.58200
O1839       O  0.60104627  0.94925743  0.75573188    -0.80600
O1840       O  0.95503187  0.61277930  0.72237130    -0.82300
C1841       C  0.66721735  0.83635704  0.85749836    -0.05000
C1842       C  0.67310666  0.80557304  0.87728995    -0.32500
C1843       C  0.67414958  0.80469029  0.91790018     0.36800
C1844       C  0.66748472  0.83411107  0.93952824    -0.05400
C1845       C  0.67228818  0.87041724  0.91967280    -0.32400
C1846       C  0.67270031  0.87210561  0.87912828     0.36700
H1847       H  0.67906760  0.78330319  0.86133083     0.17100
O1848       O  0.68688054  0.77888823  0.93592947    -0.59900
H1849       H  0.67759028  0.89859728  0.93555866     0.17100
O1850       O  0.68328390  0.91030959  0.86108992    -0.60000
H1851       H  0.66511032  0.92068892  0.87295910     0.44100
H1852       H  0.67014579  0.74987432  0.92395326     0.44000
C1853       C  0.66366557  0.83324580  0.68960245    -0.05000
C1854       C  0.69481115  0.82798927  0.66981147    -0.32500
C1855       C  0.69578265  0.82714725  0.62921118     0.36800
C1856       C  0.66582177  0.83298848  0.60754574    -0.05400
C1857       C  0.62939386  0.82783393  0.62737069    -0.32400
C1858       C  0.62753476  0.82682728  0.66793884     0.36700
H1859       H  0.71740932  0.82244872  0.68577705     0.17100
O1860       O  0.72252782  0.81568909  0.61117711    -0.59900
H1861       H  0.60114795  0.82234960  0.61145519     0.17100
O1862       O  0.58887542  0.81444017  0.68593368    -0.60000
H1863       H  0.57704603  0.83131946  0.67391320     0.44100
H1864       H  0.75132999  0.83274430  0.62352022     0.44000
C1865       C  0.83436787  0.66270447  0.89222381    -0.05000
C1866       C  0.87080959  0.69383614  0.87185782    -0.32500
C1867       C  0.87191369  0.69401369  0.83139756     0.36800
C1868       C  0.83512082  0.66412844  0.81015469    -0.05400
C1869       C  0.80358353  0.62782347  0.83040403    -0.32400
C1870       C  0.80328968  0.62649700  0.87105528     0.36700
H1871       H  0.89935234  0.71734390  0.88728334     0.17100
O1872       O  0.90989259  0.72210753  0.81322519    -0.59900
H1873       H  0.78001239  0.59949052  0.81479779     0.17100
O1874       O  0.77583977  0.58835439  0.88958069    -0.60000
H1875       H  0.74684941  0.57726170  0.87800655     0.44100
H1876       H  0.92490222  0.70569793  0.80939697     0.44000
C1877       C  0.83522184  0.66534651  0.64226038    -0.05000
C1878       C  0.87096356  0.69806697  0.62225778    -0.32500
C1879       C  0.87304879  0.69826896  0.58163328     0.36800
C1880       C  0.83774819  0.66633615  0.56018389    -0.05400
C1881       C  0.80765529  0.62914601  0.58038045    -0.32400
C1882       C  0.80647665  0.62810260  0.62096423     0.36700
H1883       H  0.89851793  0.72253198  0.63810520     0.17100
O1884       O  0.91126328  0.72630181  0.56347737    -0.59900
H1885       H  0.78562251  0.60008750  0.56471784     0.17100
O1886       O  0.78029838  0.58958615  0.63950383    -0.60000
H1887       H  0.75129834  0.57697656  0.62749339     0.44100
H1888       H  0.92220904  0.75508945  0.57548174     0.44000
loop_ 
_geom_bond_atom_site_label_1 
_geom_bond_atom_site_label_2 
_geom_bond_distance 
_geom_bond_site_symmetry_2 
_ccdc_geom_bond_type 
C1            C3   1.522   1_554  S
C1            C5   1.538   1_554  S
C1            C4   1.538   1_554  S
C1          C228   1.531       .  S
C2            C6   1.536       .  S
C2            C8   1.554       .  S
C2            C7   1.553       .  S
C2          C213   1.529       .  S
C3           C11   1.368   1_556  A
C3          C242   1.389       .  A
C4           C15   1.375   1_556  A
C4          C243   1.398       .  A
C5           C19   1.373   1_556  A
C5          C244   1.399       .  A
C6            C9   1.383       .  A
C6          C239   1.389       .  A
C7           C13   1.390       .  A
C7          C240   1.398       .  A
C8           C16   1.391       .  A
C8          C241   1.399       .  A
C9           H22   1.082       .  S
C9          N246   1.359       .  A
N10          C11   1.353   1_556  A
N10         C245   1.359       .  A
N10         C370   1.425       .  S
C11          H12   1.083       .  S
C13          H23   1.081       .  S
C13          N14   1.358       .  A
N14         C251   1.350       .  A
N14          C98   1.429       .  S
C15          H21   1.082       .  S
C15         N250   1.350   1_554  A
C16          H18   1.081       .  S
C16          N17   1.358       .  A
N17         C255   1.351       .  A
N17         C109   1.429       .  S
C19          H20   1.081       .  S
C19         N253   1.351   1_554  A
C24          C26   1.536       .  S
C24          C28   1.554       .  S
C24          C27   1.555       .  S
C24         C225   1.528       .  S
C25          C29   1.520       .  S
C25          C31   1.538       .  S
C25          C30   1.537       .  S
C25         C216   1.530       .  S
C26          C34   1.384       .  A
C26          C29   1.388       .  A
C27          C38   1.391       .  A
C27          C30   1.398       .  A
C28          C42   1.389       .  A
C28          C31   1.399       .  A
C29          C32   1.367       .  A
C30          C36   1.373       .  A
C31          C39   1.374       .  A
C32          H45   1.083       .  S
C32          N33   1.352       .  A
N33          C34   1.358       .  A
N33         C150   1.423       .  S
C34          H35   1.082       .  S
C36          H46   1.082       .  S
C36          N37   1.350       .  A
N37          C38   1.359       .  A
N37         C158   1.430       .  S
C38          H44   1.082       .  S
C39          H41   1.082       .  S
C39          N40   1.351       .  A
N40          C42   1.357       .  A
N40         C184   1.429       .  S
C42          H43   1.081       .  S
C47          C49   1.555       .  S
C47          C51   1.541       .  S
C47          C50   1.548       .  S
C47         C204   1.528       .  S
C48          C52   1.539       .  S
C48          C54   1.532       .  S
C48          C53   1.525       .  S
C48         C192   1.530       .  S
C49          C57   1.391       .  A
C49         C288   1.397       .  A
C50          C61   1.387       .  A
C50         C289   1.394       .  A
C51          C65   1.385       .  A
C51         C290   1.394       .  A
C52          C55   1.375       .  A
C52         C285   1.397       .  A
C53          C59   1.368       .  A
C53         C286   1.394       .  A
C54          C62   1.370       .  A
C54         C287   1.394       .  A
C55          H68   1.082       .  S
C55         N292   1.352       .  A
N56          C57   1.359       .  A
N56         C291   1.352   1_554  A
N56         C102   1.432       .  S
C57          H58   1.082       .  S
C59          H69   1.083       .  S
C59         N296   1.350       .  A
N60          C61   1.357       .  A
N60         C295   1.350   1_554  A
N60         C110   1.425       .  S
C61          H67   1.080       .  S
C62          H64   1.081       .  S
C62         N299   1.351       .  A
N63          C65   1.358       .  A
N63         C298   1.351   1_554  A
N63         C136   1.425       .  S
C65          H66   1.082       .  S
C70          C72   1.537       .  S
C70          C74   1.534       .  S
C70          C73   1.526       .  S
C70         C201   1.531       .  S
C71          C75   1.554       .  S
C71          C77   1.541       .  S
C71          C76   1.549       .  S
C71         C189   1.528       .  S
C72          C80   1.373       .  A
C72          C75   1.397       .  A
C73          C84   1.369       .  A
C73          C76   1.394       .  A
C74          C88   1.372       .  A
C74          C77   1.394       .  A
C75          C78   1.390       .  A
C76          C82   1.389       .  A
C77          C85   1.385       .  A
C78          H91   1.081       .  S
C78          N79   1.358       .  A
N79          C80   1.351       .  A
N79         C182   1.430       .  S
C80          H81   1.081       .  S
C82          H92   1.081       .  S
C82          N83   1.358       .  A
N83          C84   1.351       .  A
N83         C146   1.426       .  S
C84          H90   1.083       .  S
C85          H87   1.082       .  S
C85          N86   1.358       .  A
N86          C88   1.351       .  A
N86         C157   1.426       .  S
C88          H89   1.082       .  S
O93         Mg95   2.127       .  S
O93        Mg809   2.170   1_544  S
O93         C600   1.235       .  S
C94         H133   1.081       .  S
C94         O107   1.235       .  S
C94         O131   1.268       .  A
Mg95       O1304   2.166   1_554  S
Mg95        O375   2.291   1_554  S
Mg95       O1079   2.251       .  S
Mg95       O1050   2.294       .  S
O96        Mg121   2.147       .  S
O96       Mg1318   2.165   1_554  S
O96        C1061   1.236       .  S
O97         C128   1.268       .  A
O97        Mg121   2.286       .  S
C98         O100   1.272       .  A
C98         O112   1.277       .  A
O99         C127   1.268       .  A
O99        Mg573   2.287   1_545  S
O100       Mg132   2.268       .  S
Mg101       O107   2.137       .  S
Mg101       O801   2.171       .  S
Mg101       O571   2.287       .  S
Mg101       O587   2.260       .  S
Mg101       O339   2.286       .  S
C102        O140   1.274       .  A
C102        O108   1.277       .  A
O103        C110   1.272       .  A
O103       Mg337   2.285   1_554  S
H104       C1061   1.081       .  S
C105        H602   1.081       .  S
C105        O591   1.236       .  S
C105        O120   1.270   1_565  A
O106        C129   1.269       .  A
O106      Mg1039   2.294   1_455  S
O107       Mg357   2.165       .  S
O108       Mg374   2.315   1_554  S
C109        O122   1.275       .  A
C109        O114   1.274       .  A
C110        O137   1.273       .  A
Mg111       O118   2.146       .  S
Mg111       O827   2.170   1_544  S
Mg111       O348   2.317   1_554  S
Mg111       O585   2.296   1_545  S
Mg111       O612   2.280   1_545  S
O112       Mg347   2.317       .  S
O113        C117   1.269   1_455  A
O113       Mg583   2.296       .  S
O114       Mg357   2.300       .  S
O115        C134   1.270       .  A
O115       Mg573   2.260   1_545  S
O116        C136   1.276       .  A
O116       Mg368   2.310   1_554  S
C117       H1048   1.081       .  S
C117       O1040   1.236       .  S
O118       Mg368   2.167   1_554  S
O118        C129   1.236       .  S
O119       Mg138   2.152       .  S
O119       Mg819   2.171       .  S
O119        C577   1.236       .  S
O120       Mg132   2.298       .  S
Mg121       O343   2.164   1_554  S
Mg121       O137   2.271       .  S
Mg121       O350   2.301   1_554  S
O122      Mg1082   2.283       .  S
H123        C600   1.081       .  S
O124       Mg132   2.134       .  S
O124      Mg1275   2.166   1_455  S
O124       C1071   1.235       .  S
H125       C1071   1.081       .  S
H126        C129   1.081       .  S
C127       H1069   1.081       .  S
C127       O1068   1.235       .  S
C128        H595   1.081       .  S
C128        O565   1.235       .  S
H130        C577   1.081       .  S
O131      Mg1082   2.292       .  S
Mg132       O354   2.167       .  S
Mg132       O352   2.310       .  S
C134        N246   1.425       .  S
C134        O139   1.273       .  A
O135        C136   1.269       .  A
O135      Mg1039   2.251   1_455  S
Mg138      O1276   2.165   1_455  S
Mg138       O344   2.315       .  S
Mg138      O1066   2.283   1_455  S
Mg138      O1075   2.292   1_455  S
O139       Mg331   2.290       .  S
O140       Mg583   2.280       .  S
O141       Mg143   2.151       .  S
O141      Mg1093   2.169   1_455  S
O141       C1120   1.236   1_455  S
C142        H181   1.081       .  S
C142        O155   1.236       .  S
C142        O179   1.269       .  A
Mg143       O644   2.167       .  S
Mg143       O187   2.303       .  S
Mg143       O655   2.282       .  S
Mg143       O626   2.289       .  S
O144       Mg169   2.137       .  S
O144       Mg658   2.167       .  S
O144        C637   1.236       .  S
O145        C176   1.269       .  A
O145       Mg169   2.296       .  S
C146        O148   1.273       .  A
C146        O160   1.273       .  A
O147        C175   1.270       .  A
O147      Mg1093   2.296   1_455  S
O148       Mg180   2.275       .  S
Mg149       O155   2.142       .  S
Mg149      O1085   2.169       .  S
Mg149       O151   2.316       .  S
Mg149      O1091   2.296       .  S
Mg149      O1107   2.280       .  S
C150        O188   1.270       .  A
C150        O156   1.273       .  A
O151        C158   1.278       .  A
H152        C637   1.081       .  S
C153       H1122   1.081       .  S
C153       O1111   1.235       .  S
C153        O168   1.268   1_655  A
O154        C177   1.268       .  A
O154       Mg615   2.289   1_545  S
O155       Mg169   2.167       .  S
O156       Mg186   2.288       .  S
C157        O170   1.270       .  A
C157        O162   1.276       .  A
C158        O185   1.272       .  A
Mg159       O166   2.133       .  S
Mg159      O1111   2.168   1_455  S
Mg159       O160   2.289       .  S
Mg159      O1105   2.289   1_455  S
Mg159      O1132   2.259   1_455  S
O161        C165   1.268   1_545  A
O161      Mg1103   2.289       .  S
O162       Mg169   2.307       .  S
O163        C182   1.274       .  A
O163      Mg1093   2.280   1_455  S
O164        C184   1.274       .  A
O164       Mg180   2.301       .  S
C165        H624   1.081       .  S
C165        O616   1.236       .  S
O166       Mg180   2.167       .  S
O166        C177   1.235       .  S
O167       Mg186   2.131       .  S
O167      Mg1103   2.168       .  S
O167       C1097   1.235       .  S
O168       Mg180   2.287       .  S
Mg169       O185   2.272       .  S
O170       Mg658   2.256       .  S
H171       C1120   1.081   1_455  S
O172       Mg180   2.148       .  S
O172       Mg615   2.167   1_545  S
O172        C647   1.236       .  S
H173        C647   1.081       .  S
H174        C177   1.081       .  S
C175        H645   1.081       .  S
C175        O644   1.236       .  S
C176       H1115   1.081       .  S
C176       O1085   1.236       .  S
H178       C1097   1.081       .  S
O179       Mg658   2.292       .  S
C182        O187   1.276       .  A
O183        C184   1.274       .  A
O183       Mg615   2.282   1_545  S
Mg186       O616   2.167   1_545  S
Mg186       O642   2.256   1_545  S
Mg186       O651   2.292   1_545  S
O188      Mg1103   2.259       .  S
C189        C190   1.406       .  A
C189        C194   1.412       .  A
C190        C191   1.404       .  A
C190        H195   1.081       .  S
C191        C192   1.413       .  A
C191        O196   1.375       .  S
C192        C193   1.406       .  A
C193        C194   1.402       .  A
C193        H197   1.081       .  S
C194        O198   1.375       .  S
O196        H200   0.992       .  S
O198        H199   0.993       .  S
C201        C202   1.406       .  A
C201        C206   1.413       .  A
C202        C203   1.404       .  A
C202        H207   1.081       .  S
C203        C204   1.413       .  A
C203        O208   1.375       .  S
C204        C205   1.406       .  A
C205        C206   1.403       .  A
C205        H209   1.081       .  S
C206        O210   1.375       .  S
O208        H212   0.992       .  S
O210        H211   0.992       .  S
C213        C214   1.406       .  A
C213        C218   1.414       .  A
C214        C215   1.398       .  A
C214        H219   1.081       .  S
C215        C216   1.413       .  A
C215        O220   1.371       .  S
C216        C217   1.406       .  A
C217        C218   1.405       .  A
C217        H221   1.081       .  S
C218        O222   1.375       .  S
O220        H224   0.991       .  S
O222        H223   0.991       .  S
C225        C226   1.407       .  A
C225        C230   1.412       .  A
C226        C227   1.405       .  A
C226        H231   1.081       .  S
C227        C228   1.413       .  A
C227        O232   1.376       .  S
C228        C229   1.406       .  A
C229        C230   1.403       .  A
C229        H233   1.082       .  S
C230        O234   1.375       .  S
O232        H236   0.992       .  S
O234        H235   0.992       .  S
C237        C239   1.522       .  S
C237        C241   1.537       .  S
C237        C240   1.538       .  S
C237        C464   1.532       .  S
C238        C242   1.536       .  S
C238        C244   1.554       .  S
C238        C243   1.553       .  S
C238        C449   1.529       .  S
C239        C247   1.368       .  A
C240        C251   1.375       .  A
C241        C255   1.373       .  A
C242        C245   1.383       .  A
C243        C249   1.390       .  A
C244        C252   1.391       .  A
C245        H258   1.082       .  S
N246        C247   1.353       .  A
C247        H248   1.083       .  S
C249        H259   1.081       .  S
C249        N250   1.358       .  A
N250        C334   1.429       .  S
C251        H257   1.082       .  S
C252        H254   1.081       .  S
C252        N253   1.358       .  A
N253        C345   1.429       .  S
C255        H256   1.081       .  S
C260        C262   1.536       .  S
C260        C264   1.554       .  S
C260        C263   1.555       .  S
C260        C461   1.528       .  S
C261        C265   1.520       .  S
C261        C267   1.538       .  S
C261        C266   1.537       .  S
C261        C452   1.530       .  S
C262        C270   1.384       .  A
C262        C265   1.388       .  A
C263        C274   1.391       .  A
C263        C266   1.398       .  A
C264        C278   1.389       .  A
C264        C267   1.399       .  A
C265        C268   1.367       .  A
C266        C272   1.373       .  A
C267        C275   1.374       .  A
C268        H281   1.083       .  S
C268        N269   1.352       .  A
N269        C270   1.358       .  A
N269        C386   1.424       .  S
C270        H271   1.082       .  S
C272        H282   1.082       .  S
C272        N273   1.350       .  A
N273        C274   1.359       .  A
N273        C394   1.430       .  S
C274        H280   1.082       .  S
C275        H277   1.082       .  S
C275        N276   1.351       .  A
N276        C278   1.357       .  A
N276        C420   1.429       .  S
C278        H279   1.081       .  S
C283        C285   1.556       .  S
C283        C287   1.540       .  S
C283        C286   1.548       .  S
C283        C440   1.528       .  S
C284        C288   1.539   1_556  S
C284        C290   1.532   1_556  S
C284        C289   1.524   1_556  S
C284        C428   1.530       .  S
C285        C293   1.391       .  A
C286        C297   1.387       .  A
C287        C301   1.385       .  A
C288        C291   1.376   1_554  A
C289        C295   1.369   1_554  A
C290        C298   1.370   1_554  A
C291        H304   1.082       .  S
N292        C293   1.359       .  A
N292        C338   1.432       .  S
C293        H294   1.082       .  S
C295        H305   1.083       .  S
N296        C297   1.357       .  A
N296        C346   1.425       .  S
C297        H303   1.080       .  S
C298        H300   1.081       .  S
N299        C301   1.357       .  A
N299        C372   1.425       .  S
C301        H302   1.082       .  S
C306        C308   1.537       .  S
C306        C310   1.534       .  S
C306        C309   1.526       .  S
C306        C437   1.530       .  S
C307        C311   1.554       .  S
C307        C313   1.541       .  S
C307        C312   1.549       .  S
C307        C425   1.527       .  S
C308        C316   1.373       .  A
C308        C311   1.396       .  A
C309        C320   1.369       .  A
C309        C312   1.394       .  A
C310        C324   1.372       .  A
C310        C313   1.394       .  A
C311        C314   1.390       .  A
C312        C318   1.389       .  A
C313        C321   1.385       .  A
C314        H327   1.081       .  S
C314        N315   1.358       .  A
N315        C316   1.351       .  A
N315        C418   1.430       .  S
C316        H317   1.081       .  S
C318        H328   1.081       .  S
C318        N319   1.358       .  A
N319        C320   1.351       .  A
N319        C382   1.426       .  S
C320        H326   1.083       .  S
C321        H323   1.082       .  S
C321        N322   1.358       .  A
N322        C324   1.351       .  A
N322        C393   1.426       .  S
C324        H325   1.082       .  S
O329       Mg331   2.127       .  S
O329       Mg573   2.171   1_545  S
O329        C836   1.235       .  S
C330        H369   1.081       .  S
C330        O343   1.235       .  S
C330        O367   1.268       .  A
Mg331      O1068   2.166       .  S
Mg331      O1315   2.251       .  S
Mg331      O1286   2.294       .  S
O332      Mg1082   2.165       .  S
O332       Mg357   2.148       .  S
O332       C1297   1.236       .  S
O333        C364   1.267       .  A
O333       Mg357   2.286       .  S
C334        O336   1.271       .  A
C334        O348   1.278       .  A
O335        C363   1.268       .  A
O335       Mg809   2.286   1_545  S
O336       Mg368   2.266       .  S
Mg337       O565   2.170   1_556  S
Mg337       O343   2.137       .  S
Mg337       O807   2.286       .  S
Mg337       O823   2.261       .  S
C338        O376   1.274       .  A
C338        O344   1.277       .  A
O339        C346   1.272       .  A
H340       C1297   1.081       .  S
C341        H838   1.081       .  S
C341        O827   1.236       .  S
C341        O356   1.270   1_565  A
O342        C365   1.269       .  A
O342      Mg1275   2.294   1_455  S
C345        O358   1.275       .  A
C345        O350   1.274       .  A
C346        O373   1.273       .  A
Mg347       O354   2.146       .  S
Mg347       O591   2.171   1_545  S
Mg347       O821   2.296   1_545  S
Mg347       O848   2.279   1_545  S
O349        C353   1.269   1_455  A
O349       Mg819   2.296       .  S
O351        C370   1.270       .  A
O351       Mg809   2.261   1_545  S
O352        C372   1.276       .  A
C353       H1284   1.081       .  S
C353       O1276   1.236       .  S
O354        C365   1.236       .  S
O355       Mg583   2.170   1_556  S
O355       Mg374   2.152       .  S
O355        C813   1.236       .  S
O356       Mg368   2.297       .  S
Mg357       O373   2.272       .  S
O358      Mg1318   2.283       .  S
H359        C836   1.081       .  S
O360      Mg1039   2.166   1_456  S
O360       Mg368   2.133       .  S
O360       C1307   1.235       .  S
H361       C1307   1.081       .  S
H362        C365   1.081       .  S
C363       H1305   1.081       .  S
C363       O1304   1.235       .  S
C364        H831   1.081       .  S
C364        O801   1.235       .  S
H366        C813   1.081       .  S
O367      Mg1318   2.292       .  S
C370        O375   1.273       .  A
O371        C372   1.269       .  A
O371      Mg1275   2.251   1_455  S
Mg374      O1040   2.165   1_456  S
Mg374      O1302   2.283   1_455  S
Mg374      O1311   2.292   1_455  S
O376       Mg819   2.279       .  S
O377       Mg379   2.151       .  S
O377      Mg1329   2.169   1_455  S
O377       C1356   1.236   1_455  S
C378        H417   1.081       .  S
C378        O391   1.235       .  S
C378        O415   1.269       .  A
Mg379       O880   2.168       .  S
Mg379       O423   2.303       .  S
Mg379       O891   2.281       .  S
Mg379       O862   2.289       .  S
O380       Mg894   2.167       .  S
O380       Mg405   2.137       .  S
O380        C873   1.236       .  S
O381        C412   1.269       .  A
O381       Mg405   2.296       .  S
C382        O384   1.273       .  A
C382        O396   1.273       .  A
O383        C411   1.269       .  A
O383      Mg1329   2.296   1_455  S
O384       Mg416   2.274       .  S
Mg385      O1321   2.169       .  S
Mg385       O391   2.142       .  S
Mg385      O1327   2.296       .  S
Mg385      O1343   2.280       .  S
Mg385       O387   2.316       .  S
C386        O424   1.270       .  A
C386        O392   1.273       .  A
O387        C394   1.278       .  A
H388        C873   1.081       .  S
C389       H1358   1.081       .  S
C389       O1347   1.235       .  S
C389        O404   1.268   1_655  A
O390        C413   1.268       .  A
O390       Mg851   2.289   1_545  S
O391       Mg405   2.166       .  S
O392       Mg422   2.288       .  S
C393        O406   1.270       .  A
C393        O398   1.276       .  A
C394        O421   1.272       .  A
Mg395       O402   2.134       .  S
Mg395      O1347   2.168   1_455  S
Mg395       O396   2.290       .  S
Mg395      O1341   2.289   1_455  S
Mg395      O1368   2.260   1_455  S
O397        C401   1.268   1_545  A
O397      Mg1339   2.289       .  S
O398       Mg405   2.307       .  S
O399        C418   1.274       .  A
O399      Mg1329   2.280   1_455  S
O400        C420   1.274       .  A
O400       Mg416   2.300       .  S
C401        H860   1.081       .  S
C401        O852   1.236       .  S
O402       Mg416   2.167       .  S
O402        C413   1.235       .  S
O403      Mg1339   2.168       .  S
O403       Mg422   2.132       .  S
O403       C1333   1.235       .  S
O404       Mg416   2.287       .  S
Mg405       O421   2.271       .  S
O406       Mg894   2.256       .  S
H407       C1356   1.081   1_455  S
O408       Mg851   2.168   1_545  S
O408       Mg416   2.148       .  S
O408        C883   1.236       .  S
H409        C883   1.081       .  S
H410        C413   1.081       .  S
C411        H881   1.081       .  S
C411        O880   1.236       .  S
C412       H1351   1.081       .  S
C412       O1321   1.236       .  S
H414       C1333   1.081       .  S
O415       Mg894   2.291       .  S
C418        O423   1.276       .  A
O419        C420   1.274       .  A
O419       Mg851   2.281   1_545  S
Mg422       O852   2.167   1_545  S
Mg422       O878   2.256   1_545  S
Mg422       O887   2.291   1_545  S
O424      Mg1339   2.260       .  S
C425        C426   1.406       .  A
C425        C430   1.412       .  A
C426        C427   1.404       .  A
C426        H431   1.081       .  S
C427        C428   1.413       .  A
C427        O432   1.375       .  S
C428        C429   1.406       .  A
C429        C430   1.402       .  A
C429        H433   1.081       .  S
C430        O434   1.375       .  S
O432        H436   0.992       .  S
O434        H435   0.993       .  S
C437        C438   1.406       .  A
C437        C442   1.413       .  A
C438        C439   1.404       .  A
C438        H443   1.081       .  S
C439        C440   1.412       .  A
C439        O444   1.375       .  S
C440        C441   1.406       .  A
C441        C442   1.403       .  A
C441        H445   1.081       .  S
C442        O446   1.376       .  S
O444        H448   0.992       .  S
O446        H447   0.992       .  S
C449        C450   1.406       .  A
C449        C454   1.414       .  A
C450        C451   1.398       .  A
C450        H455   1.081       .  S
C451        C452   1.413       .  A
C451        O456   1.371       .  S
C452        C453   1.406       .  A
C453        C454   1.405       .  A
C453        H457   1.081       .  S
C454        O458   1.375       .  S
O456        H460   0.991       .  S
O458        H459   0.991       .  S
C461        C462   1.407       .  A
C461        C466   1.413       .  A
C462        C463   1.405       .  A
C462        H467   1.081       .  S
C463        C464   1.413       .  A
C463        O468   1.376       .  S
C464        C465   1.406       .  A
C465        C466   1.402       .  A
C465        H469   1.082       .  S
C466        O470   1.375       .  S
O468        H472   0.992       .  S
O470        H471   0.992       .  S
C473        C475   1.522   1_554  S
C473        C477   1.538   1_554  S
C473        C476   1.538   1_554  S
C473        C700   1.531       .  S
C474        C478   1.536       .  S
C474        C480   1.554       .  S
C474        C479   1.553       .  S
C474        C685   1.529       .  S
C475        C483   1.368   1_556  A
C475        C714   1.389       .  A
C476        C487   1.375   1_556  A
C476        C715   1.398       .  A
C477        C491   1.373   1_556  A
C477        C716   1.399       .  A
C478        C711   1.389       .  A
C478        C481   1.383       .  A
C479        C712   1.398       .  A
C479        C485   1.390       .  A
C480        C713   1.399       .  A
C480        C488   1.391       .  A
C481        H494   1.082       .  S
C481        N718   1.359       .  A
N482        C717   1.359       .  A
N482        C483   1.353   1_556  A
N482        C842   1.425       .  S
C483        H484   1.083       .  S
C485        H495   1.081       .  S
C485        N486   1.358       .  A
N486        C723   1.350       .  A
N486        C570   1.429       .  S
C487        H493   1.082       .  S
C487        N722   1.350   1_554  A
C488        H490   1.081       .  S
C488        N489   1.358       .  A
N489        C727   1.351       .  A
N489        C581   1.429       .  S
C491        H492   1.081       .  S
C491        N725   1.351   1_554  A
C496        C498   1.536       .  S
C496        C500   1.554       .  S
C496        C499   1.555       .  S
C496        C697   1.528       .  S
C497        C501   1.520       .  S
C497        C503   1.538       .  S
C497        C502   1.537       .  S
C497        C688   1.530       .  S
C498        C506   1.384       .  A
C498        C501   1.388       .  A
C499        C510   1.391       .  A
C499        C502   1.398       .  A
C500        C514   1.389       .  A
C500        C503   1.399       .  A
C501        C504   1.367       .  A
C502        C508   1.373       .  A
C503        C511   1.374       .  A
C504        H517   1.083       .  S
C504        N505   1.352       .  A
N505        C506   1.358       .  A
N505        C622   1.423       .  S
C506        H507   1.082       .  S
C508        H518   1.082       .  S
C508        N509   1.350       .  A
N509        C510   1.359       .  A
N509        C630   1.430       .  S
C510        H516   1.082       .  S
C511        H513   1.082       .  S
C511        N512   1.351       .  A
N512        C514   1.357       .  A
N512        C656   1.429       .  S
C514        H515   1.081       .  S
C519        C521   1.555       .  S
C519        C523   1.541       .  S
C519        C522   1.548       .  S
C519        C676   1.528       .  S
C520        C524   1.539       .  S
C520        C526   1.532       .  S
C520        C525   1.525       .  S
C520        C664   1.530       .  S
C521        C529   1.391       .  A
C521        C760   1.397       .  A
C522        C533   1.387       .  A
C522        C761   1.394       .  A
C523        C537   1.385       .  A
C523        C762   1.394       .  A
C524        C757   1.397       .  A
C524        C527   1.375       .  A
C525        C758   1.394       .  A
C525        C531   1.368       .  A
C526        C759   1.394       .  A
C526        C534   1.370       .  A
C527        H540   1.082       .  S
C527        N764   1.352       .  A
N528        C763   1.352   1_554  A
N528        C529   1.359       .  A
N528        C574   1.432       .  S
C529        H530   1.082       .  S
C531        H541   1.083       .  S
C531        N768   1.350       .  A
N532        C767   1.350   1_554  A
N532        C533   1.357       .  A
N532        C582   1.425       .  S
C533        H539   1.080       .  S
C534        H536   1.081       .  S
C534        N771   1.351       .  A
N535        C770   1.351   1_554  A
N535        C537   1.358       .  A
N535        C608   1.425       .  S
C537        H538   1.082       .  S
C542        C544   1.537       .  S
C542        C546   1.534       .  S
C542        C545   1.526       .  S
C542        C673   1.531       .  S
C543        C547   1.554       .  S
C543        C549   1.541       .  S
C543        C548   1.549       .  S
C543        C661   1.528       .  S
C544        C552   1.373       .  A
C544        C547   1.397       .  A
C545        C556   1.369       .  A
C545        C548   1.394       .  A
C546        C560   1.372       .  A
C546        C549   1.394       .  A
C547        C550   1.390       .  A
C548        C554   1.389       .  A
C549        C557   1.385       .  A
C550        H563   1.081       .  S
C550        N551   1.358       .  A
N551        C552   1.351       .  A
N551        C654   1.430       .  S
C552        H553   1.081       .  S
C554        H564   1.081       .  S
C554        N555   1.358       .  A
N555        C556   1.351       .  A
N555        C618   1.426       .  S
C556        H562   1.083       .  S
C557        H559   1.082       .  S
C557        N558   1.358       .  A
N558        C560   1.351       .  A
N558        C629   1.426       .  S
C560        H561   1.082       .  S
O565       Mg567   2.127       .  S
C566        H605   1.081       .  S
C566        O579   1.235       .  S
C566        O603   1.268       .  A
Mg567      O1776   2.166   1_554  S
Mg567       O847   2.291   1_554  S
Mg567      O1551   2.251       .  S
Mg567      O1522   2.294       .  S
O568      Mg1790   2.165   1_554  S
O568       Mg593   2.147       .  S
O568       C1533   1.236       .  S
O569        C600   1.268   1_565  A
O569       Mg593   2.286       .  S
C570        O572   1.272       .  A
C570        O584   1.277       .  A
O571        C599   1.268       .  A
O572       Mg604   2.268       .  S
Mg573       O579   2.137       .  S
Mg573       O811   2.286       .  S
C574        O612   1.274       .  A
C574        O580   1.277       .  A
O575        C582   1.272       .  A
O575       Mg809   2.285   1_554  S
H576       C1533   1.081       .  S
C577        O592   1.270       .  A
O578        C601   1.269       .  A
O578      Mg1511   2.294   1_455  S
O579       Mg829   2.165       .  S
O580       Mg846   2.315   1_554  S
C581        O594   1.275       .  A
C581        O586   1.274       .  A
C582        O609   1.273       .  A
Mg583       O590   2.146       .  S
Mg583       O820   2.317   1_554  S
O584       Mg819   2.317       .  S
O585        C589   1.269   1_455  A
O586       Mg829   2.300       .  S
O587        C606   1.270       .  A
O588        C608   1.276       .  A
O588       Mg840   2.310   1_554  S
C589       H1520   1.081       .  S
C589       O1512   1.236       .  S
O590       Mg840   2.167   1_554  S
O590        C601   1.236       .  S
O591       Mg610   2.152       .  S
O592       Mg604   2.298       .  S
Mg593       O815   2.164   1_554  S
Mg593       O822   2.301   1_554  S
Mg593       O609   2.271       .  S
O594      Mg1554   2.283       .  S
O596      Mg1747   2.166   1_455  S
O596       Mg604   2.134       .  S
O596       C1543   1.235       .  S
H597       C1543   1.081       .  S
H598        C601   1.081       .  S
C599       H1541   1.081       .  S
C599       O1540   1.235       .  S
O603      Mg1554   2.292       .  S
Mg604       O826   2.167       .  S
Mg604       O824   2.310       .  S
C606        N718   1.425       .  S
C606        O611   1.273       .  A
O607        C608   1.269       .  A
O607      Mg1511   2.251   1_455  S
Mg610      O1748   2.165   1_455  S
Mg610       O816   2.315       .  S
Mg610      O1538   2.283   1_455  S
Mg610      O1547   2.292   1_455  S
O611       Mg803   2.290       .  S
O613       Mg615   2.151       .  S
O613      Mg1565   2.169   1_455  S
O613       C1592   1.236   1_455  S
C614        H653   1.081       .  S
C614        O627   1.236       .  S
C614        O651   1.269       .  A
Mg615       O659   2.303       .  S
O616       Mg641   2.137       .  S
O617        C648   1.269       .  A
O617       Mg641   2.296       .  S
C618        O620   1.273       .  A
C618        O632   1.273       .  A
O619        C647   1.270   1_565  A
O619      Mg1565   2.296   1_455  S
O620       Mg652   2.275       .  S
Mg621      O1557   2.169       .  S
Mg621       O627   2.142       .  S
Mg621      O1563   2.296       .  S
Mg621      O1579   2.280       .  S
Mg621       O623   2.316       .  S
C622        O660   1.270       .  A
C622        O628   1.273       .  A
O623        C630   1.278       .  A
C625       H1594   1.081       .  S
C625       O1583   1.235       .  S
C625        O640   1.268   1_655  A
O626        C649   1.268       .  A
O627       Mg641   2.167       .  S
O628       Mg658   2.288       .  S
C629        O642   1.270       .  A
C629        O634   1.276       .  A
C630        O657   1.272       .  A
Mg631       O638   2.133       .  S
Mg631      O1583   2.168   1_455  S
Mg631       O632   2.289       .  S
Mg631      O1577   2.289   1_455  S
Mg631      O1604   2.259   1_455  S
O633        C637   1.268       .  A
O633      Mg1575   2.289       .  S
O634       Mg641   2.307       .  S
O635        C654   1.274       .  A
O635      Mg1565   2.280   1_455  S
O636        C656   1.274       .  A
O636       Mg652   2.301       .  S
O638       Mg652   2.167       .  S
O638        C649   1.235       .  S
O639      Mg1575   2.168       .  S
O639       Mg658   2.131       .  S
O639       C1569   1.235       .  S
O640       Mg652   2.287       .  S
Mg641       O657   2.272       .  S
H643       C1592   1.081   1_455  S
O644       Mg652   2.148       .  S
H646        C649   1.081       .  S
C648       H1587   1.081       .  S
C648       O1557   1.236       .  S
H650       C1569   1.081       .  S
C654        O659   1.276       .  A
O655        C656   1.274       .  A
O660      Mg1575   2.259       .  S
C661        C662   1.406       .  A
C661        C666   1.412       .  A
C662        C663   1.404       .  A
C662        H667   1.081       .  S
C663        C664   1.413       .  A
C663        O668   1.375       .  S
C664        C665   1.406       .  A
C665        C666   1.402       .  A
C665        H669   1.081       .  S
C666        O670   1.375       .  S
O668        H672   0.992       .  S
O670        H671   0.993       .  S
C673        C674   1.406       .  A
C673        C678   1.413       .  A
C674        C675   1.404       .  A
C674        H679   1.081       .  S
C675        C676   1.413       .  A
C675        O680   1.375       .  S
C676        C677   1.406       .  A
C677        C678   1.403       .  A
C677        H681   1.081       .  S
C678        O682   1.375       .  S
O680        H684   0.992       .  S
O682        H683   0.992       .  S
C685        C686   1.406       .  A
C685        C690   1.414       .  A
C686        C687   1.398       .  A
C686        H691   1.081       .  S
C687        C688   1.413       .  A
C687        O692   1.371       .  S
C688        C689   1.406       .  A
C689        C690   1.405       .  A
C689        H693   1.081       .  S
C690        O694   1.375       .  S
O692        H696   0.991       .  S
O694        H695   0.991       .  S
C697        C698   1.407       .  A
C697        C702   1.412       .  A
C698        C699   1.405       .  A
C698        H703   1.081       .  S
C699        C700   1.413       .  A
C699        O704   1.376       .  S
C700        C701   1.406       .  A
C701        C702   1.403       .  A
C701        H705   1.082       .  S
C702        O706   1.375       .  S
O704        H708   0.992       .  S
O706        H707   0.992       .  S
C709        C711   1.522       .  S
C709        C713   1.537       .  S
C709        C712   1.538       .  S
C709        C936   1.532       .  S
C710        C714   1.536       .  S
C710        C716   1.554       .  S
C710        C715   1.553       .  S
C710        C921   1.529       .  S
C711        C719   1.368       .  A
C712        C723   1.375       .  A
C713        C727   1.373       .  A
C714        C717   1.383       .  A
C715        C721   1.390       .  A
C716        C724   1.391       .  A
C717        H730   1.082       .  S
N718        C719   1.353       .  A
C719        H720   1.083       .  S
C721        H731   1.081       .  S
C721        N722   1.358       .  A
N722        C806   1.429       .  S
C723        H729   1.082       .  S
C724        H726   1.081       .  S
C724        N725   1.358       .  A
N725        C817   1.429       .  S
C727        H728   1.081       .  S
C732        C734   1.536       .  S
C732        C736   1.554       .  S
C732        C735   1.555       .  S
C732        C933   1.528       .  S
C733        C737   1.520       .  S
C733        C739   1.538       .  S
C733        C738   1.537       .  S
C733        C924   1.530       .  S
C734        C742   1.384       .  A
C734        C737   1.388       .  A
C735        C746   1.391       .  A
C735        C738   1.398       .  A
C736        C750   1.389       .  A
C736        C739   1.399       .  A
C737        C740   1.367       .  A
C738        C744   1.373       .  A
C739        C747   1.374       .  A
C740        H753   1.083       .  S
C740        N741   1.352       .  A
N741        C742   1.358       .  A
N741        C858   1.424       .  S
C742        H743   1.082       .  S
C744        H754   1.082       .  S
C744        N745   1.350       .  A
N745        C746   1.359       .  A
N745        C866   1.430       .  S
C746        H752   1.082       .  S
C747        H749   1.082       .  S
C747        N748   1.351       .  A
N748        C750   1.357       .  A
N748        C892   1.429       .  S
C750        H751   1.081       .  S
C755        C757   1.556       .  S
C755        C759   1.540       .  S
C755        C758   1.548       .  S
C755        C912   1.528       .  S
C756        C760   1.539   1_556  S
C756        C762   1.532   1_556  S
C756        C761   1.524   1_556  S
C756        C900   1.530       .  S
C757        C765   1.391       .  A
C758        C769   1.387       .  A
C759        C773   1.385       .  A
C760        C763   1.376   1_554  A
C761        C767   1.369   1_554  A
C762        C770   1.370   1_554  A
C763        H776   1.082       .  S
N764        C765   1.359       .  A
N764        C810   1.432       .  S
C765        H766   1.082       .  S
C767        H777   1.083       .  S
N768        C769   1.357       .  A
N768        C818   1.425       .  S
C769        H775   1.080       .  S
C770        H772   1.081       .  S
N771        C773   1.357       .  A
N771        C844   1.425       .  S
C773        H774   1.082       .  S
C778        C780   1.537       .  S
C778        C782   1.534       .  S
C778        C781   1.526       .  S
C778        C909   1.530       .  S
C779        C783   1.554       .  S
C779        C785   1.541       .  S
C779        C784   1.549       .  S
C779        C897   1.527       .  S
C780        C788   1.373       .  A
C780        C783   1.396       .  A
C781        C792   1.369       .  A
C781        C784   1.394       .  A
C782        C796   1.372       .  A
C782        C785   1.394       .  A
C783        C786   1.390       .  A
C784        C790   1.389       .  A
C785        C793   1.385       .  A
C786        H799   1.081       .  S
C786        N787   1.358       .  A
N787        C788   1.351       .  A
N787        C890   1.430       .  S
C788        H789   1.081       .  S
C790        H800   1.081       .  S
C790        N791   1.358       .  A
N791        C792   1.351       .  A
N791        C854   1.426       .  S
C792        H798   1.083       .  S
C793        H795   1.082       .  S
C793        N794   1.358       .  A
N794        C796   1.351       .  A
N794        C865   1.426       .  S
C796        H797   1.082       .  S
O801       Mg803   2.127       .  S
C802        H841   1.081       .  S
C802        O815   1.235       .  S
C802        O839   1.268       .  A
Mg803      O1540   2.166       .  S
Mg803      O1787   2.251       .  S
Mg803      O1758   2.294       .  S
O804      Mg1554   2.165       .  S
O804       Mg829   2.148       .  S
O804       C1769   1.236       .  S
O805        C836   1.267   1_565  A
O805       Mg829   2.286       .  S
C806        O808   1.271       .  A
C806        O820   1.278       .  A
O807        C835   1.268       .  A
O808       Mg840   2.266       .  S
Mg809       O815   2.137       .  S
C810        O848   1.274       .  A
C810        O816   1.277       .  A
O811        C818   1.272       .  A
H812       C1769   1.081       .  S
C813        O828   1.270       .  A
O814        C837   1.269       .  A
O814      Mg1747   2.294   1_455  S
C817        O830   1.275       .  A
C817        O822   1.274       .  A
C818        O845   1.273       .  A
Mg819       O826   2.146       .  S
O821        C825   1.269   1_455  A
O823        C842   1.270       .  A
O824        C844   1.276       .  A
C825       H1756   1.081       .  S
C825       O1748   1.236       .  S
O826        C837   1.236       .  S
O827       Mg846   2.152       .  S
O828       Mg840   2.297       .  S
Mg829       O845   2.272       .  S
O830      Mg1790   2.283       .  S
O832      Mg1511   2.166   1_456  S
O832       Mg840   2.133       .  S
O832       C1779   1.235       .  S
H833       C1779   1.081       .  S
H834        C837   1.081       .  S
C835       H1777   1.081       .  S
C835       O1776   1.235       .  S
O839      Mg1790   2.292       .  S
C842        O847   1.273       .  A
O843        C844   1.269       .  A
O843      Mg1747   2.251   1_455  S
Mg846      O1512   2.165   1_456  S
Mg846      O1774   2.283   1_455  S
Mg846      O1783   2.292   1_455  S
O849       Mg851   2.151       .  S
O849      Mg1801   2.169   1_455  S
O849       C1828   1.236   1_455  S
C850        H889   1.081       .  S
C850        O863   1.235       .  S
C850        O887   1.269       .  A
Mg851       O895   2.303       .  S
O852       Mg877   2.137       .  S
O853        C884   1.269       .  A
O853       Mg877   2.296       .  S
C854        O856   1.273       .  A
C854        O868   1.273       .  A
O855        C883   1.269   1_565  A
O855      Mg1801   2.296   1_455  S
O856       Mg888   2.274       .  S
Mg857      O1793   2.169       .  S
Mg857       O863   2.142       .  S
Mg857      O1799   2.296       .  S
Mg857      O1815   2.280       .  S
Mg857       O859   2.316       .  S
C858        O896   1.270       .  A
C858        O864   1.273       .  A
O859        C866   1.278       .  A
C861       H1830   1.081       .  S
C861       O1819   1.235       .  S
C861        O876   1.268   1_655  A
O862        C885   1.268       .  A
O863       Mg877   2.166       .  S
O864       Mg894   2.288       .  S
C865        O878   1.270       .  A
C865        O870   1.276       .  A
C866        O893   1.272       .  A
Mg867       O874   2.134       .  S
Mg867      O1819   2.168   1_455  S
Mg867       O868   2.290       .  S
Mg867      O1813   2.289   1_455  S
Mg867      O1840   2.260   1_455  S
O869        C873   1.268       .  A
O869      Mg1811   2.289       .  S
O870       Mg877   2.307       .  S
O871        C890   1.274       .  A
O871      Mg1801   2.280   1_455  S
O872        C892   1.274       .  A
O872       Mg888   2.300       .  S
O874       Mg888   2.167       .  S
O874        C885   1.235       .  S
O875      Mg1811   2.168       .  S
O875       Mg894   2.132       .  S
O875       C1805   1.235       .  S
O876       Mg888   2.287       .  S
Mg877       O893   2.271       .  S
H879       C1828   1.081   1_455  S
O880       Mg888   2.148       .  S
H882        C885   1.081       .  S
C884       H1823   1.081       .  S
C884       O1793   1.236       .  S
H886       C1805   1.081       .  S
C890        O895   1.276       .  A
O891        C892   1.274       .  A
O896      Mg1811   2.260       .  S
C897        C898   1.406       .  A
C897        C902   1.412       .  A
C898        C899   1.404       .  A
C898        H903   1.081       .  S
C899        C900   1.413       .  A
C899        O904   1.375       .  S
C900        C901   1.406       .  A
C901        C902   1.402       .  A
C901        H905   1.081       .  S
C902        O906   1.375       .  S
O904        H908   0.992       .  S
O906        H907   0.993       .  S
C909        C910   1.406       .  A
C909        C914   1.413       .  A
C910        C911   1.404       .  A
C910        H915   1.081       .  S
C911        C912   1.412       .  A
C911        O916   1.375       .  S
C912        C913   1.406       .  A
C913        C914   1.403       .  A
C913        H917   1.081       .  S
C914        O918   1.376       .  S
O916        H920   0.992       .  S
O918        H919   0.992       .  S
C921        C922   1.406       .  A
C921        C926   1.414       .  A
C922        C923   1.398       .  A
C922        H927   1.081       .  S
C923        C924   1.413       .  A
C923        O928   1.371       .  S
C924        C925   1.406       .  A
C925        C926   1.405       .  A
C925        H929   1.081       .  S
C926        O930   1.375       .  S
O928        H932   0.991       .  S
O930        H931   0.991       .  S
C933        C934   1.407       .  A
C933        C938   1.413       .  A
C934        C935   1.405       .  A
C934        H939   1.081       .  S
C935        C936   1.413       .  A
C935        O940   1.376       .  S
C936        C937   1.406       .  A
C937        C938   1.402       .  A
C937        H941   1.082       .  S
C938        O942   1.375       .  S
O940        H944   0.992       .  S
O942        H943   0.992       .  S
C945        C947   1.522   1_554  S
C945        C949   1.538   1_554  S
C945        C948   1.538   1_554  S
C945       C1172   1.531       .  S
C946        C950   1.536       .  S
C946        C952   1.554       .  S
C946        C951   1.553       .  S
C946       C1157   1.529       .  S
C947        C955   1.368   1_556  A
C947       C1186   1.389       .  A
C948        C959   1.375   1_556  A
C948       C1187   1.398       .  A
C949        C963   1.373   1_556  A
C949       C1188   1.399       .  A
C950       C1183   1.389       .  A
C950        C953   1.383       .  A
C951       C1184   1.398       .  A
C951        C957   1.390       .  A
C952       C1185   1.399       .  A
C952        C960   1.391       .  A
C953        H966   1.082       .  S
C953       N1190   1.359       .  A
N954       C1189   1.359       .  A
N954        C955   1.353   1_556  A
N954       C1314   1.425       .  S
C955        H956   1.083       .  S
C957        H967   1.081       .  S
C957        N958   1.358       .  A
N958       C1195   1.350       .  A
N958       C1042   1.429       .  S
C959        H965   1.082       .  S
C959       N1194   1.350   1_554  A
C960        H962   1.081       .  S
C960        N961   1.358       .  A
N961       C1199   1.351       .  A
N961       C1053   1.429       .  S
C963        H964   1.081       .  S
C963       N1197   1.351   1_554  A
C968        C970   1.536       .  S
C968        C972   1.554       .  S
C968        C971   1.555       .  S
C968       C1169   1.528       .  S
C969        C973   1.520       .  S
C969        C975   1.538       .  S
C969        C974   1.537       .  S
C969       C1160   1.530       .  S
C970        C978   1.384       .  A
C970        C973   1.388       .  A
C971        C982   1.391       .  A
C971        C974   1.398       .  A
C972        C986   1.389       .  A
C972        C975   1.399       .  A
C973        C976   1.367       .  A
C974        C980   1.373       .  A
C975        C983   1.374       .  A
C976        H989   1.083       .  S
C976        N977   1.352       .  A
N977        C978   1.358       .  A
N977       C1094   1.423       .  S
C978        H979   1.082       .  S
C980        H990   1.082       .  S
C980        N981   1.350       .  A
N981        C982   1.359       .  A
N981       C1102   1.430       .  S
C982        H988   1.082       .  S
C983        H985   1.082       .  S
C983        N984   1.351       .  A
N984        C986   1.357       .  A
N984       C1128   1.429       .  S
C986        H987   1.081       .  S
C991        C993   1.555       .  S
C991        C995   1.541       .  S
C991        C994   1.548       .  S
C991       C1148   1.528       .  S
C992        C996   1.539       .  S
C992        C998   1.532       .  S
C992        C997   1.525       .  S
C992       C1136   1.530       .  S
C993       C1001   1.391       .  A
C993       C1232   1.397       .  A
C994       C1005   1.387       .  A
C994       C1233   1.394       .  A
C995       C1009   1.385       .  A
C995       C1234   1.394       .  A
C996       C1229   1.397       .  A
C996        C999   1.375       .  A
C997       C1230   1.394       .  A
C997       C1003   1.368       .  A
C998       C1231   1.394       .  A
C998       C1006   1.370       .  A
C999       H1012   1.082       .  S
C999       N1236   1.352       .  A
N1000      C1235   1.352   1_554  A
N1000      C1001   1.359       .  A
N1000      C1046   1.432       .  S
C1001      H1002   1.082       .  S
C1003      H1013   1.083       .  S
C1003      N1240   1.350       .  A
N1004      C1239   1.350   1_554  A
N1004      C1005   1.357       .  A
N1004      C1054   1.425       .  S
C1005      H1011   1.080       .  S
C1006      H1008   1.081       .  S
C1006      N1243   1.351       .  A
N1007      C1242   1.351   1_554  A
N1007      C1009   1.358       .  A
N1007      C1080   1.425       .  S
C1009      H1010   1.082       .  S
C1014      C1016   1.537       .  S
C1014      C1018   1.534       .  S
C1014      C1017   1.526       .  S
C1014      C1145   1.531       .  S
C1015      C1019   1.554       .  S
C1015      C1021   1.541       .  S
C1015      C1020   1.549       .  S
C1015      C1133   1.528       .  S
C1016      C1024   1.373       .  A
C1016      C1019   1.397       .  A
C1017      C1028   1.369       .  A
C1017      C1020   1.394       .  A
C1018      C1032   1.372       .  A
C1018      C1021   1.394       .  A
C1019      C1022   1.390       .  A
C1020      C1026   1.389       .  A
C1021      C1029   1.385       .  A
C1022      H1035   1.081       .  S
C1022      N1023   1.358       .  A
N1023      C1024   1.351       .  A
N1023      C1126   1.430       .  S
C1024      H1025   1.081       .  S
C1026      H1036   1.081       .  S
C1026      N1027   1.358       .  A
N1027      C1028   1.351       .  A
N1027      C1090   1.426       .  S
C1028      H1034   1.083       .  S
C1029      H1031   1.082       .  S
C1029      N1030   1.358       .  A
N1030      C1032   1.351       .  A
N1030      C1101   1.426       .  S
C1032      H1033   1.082       .  S
O1037     Mg1039   2.127       .  S
O1037     Mg1753   2.170   1_544  S
O1037      C1544   1.235       .  S
C1038      H1077   1.081       .  S
C1038      O1051   1.235       .  S
C1038      O1075   1.268       .  A
Mg1039     O1319   2.291   1_554  S
O1040     Mg1065   2.147       .  S
O1041      C1072   1.268       .  A
O1041     Mg1065   2.286       .  S
C1042      O1044   1.272       .  A
C1042      O1056   1.277       .  A
O1043      C1071   1.268   1_655  A
O1043     Mg1517   2.287   1_545  S
O1044     Mg1076   2.268       .  S
Mg1045     O1745   2.171       .  S
Mg1045     O1051   2.137       .  S
Mg1045     O1515   2.287       .  S
Mg1045     O1531   2.260       .  S
Mg1045     O1283   2.286       .  S
C1046      O1084   1.274       .  A
C1046      O1052   1.277       .  A
O1047      C1054   1.272       .  A
O1047     Mg1281   2.285   1_554  S
C1049      H1546   1.081       .  S
C1049      O1535   1.236       .  S
C1049      O1064   1.270   1_565  A
O1050      C1073   1.269       .  A
O1051     Mg1301   2.165       .  S
O1052     Mg1318   2.315   1_554  S
C1053      O1066   1.275       .  A
C1053      O1058   1.274       .  A
C1054      O1081   1.273       .  A
Mg1055     O1062   2.146       .  S
Mg1055     O1771   2.170   1_544  S
Mg1055     O1292   2.317   1_554  S
Mg1055     O1529   2.296   1_545  S
Mg1055     O1556   2.280   1_545  S
O1056     Mg1291   2.317       .  S
O1057      C1061   1.269       .  A
O1057     Mg1527   2.296       .  S
O1058     Mg1301   2.300       .  S
O1059      C1078   1.270       .  A
O1059     Mg1517   2.260   1_545  S
O1060      C1080   1.276       .  A
O1060     Mg1312   2.310   1_554  S
O1062     Mg1312   2.167   1_554  S
O1062      C1073   1.236       .  S
O1063     Mg1763   2.171       .  S
O1063     Mg1082   2.152       .  S
O1063      C1521   1.236       .  S
O1064     Mg1076   2.298       .  S
Mg1065     O1287   2.164   1_554  S
Mg1065     O1294   2.301   1_554  S
Mg1065     O1081   2.271       .  S
H1067      C1544   1.081       .  S
O1068     Mg1076   2.134       .  S
H1070      C1073   1.081       .  S
C1072      H1539   1.081       .  S
C1072      O1509   1.235       .  S
H1074      C1521   1.081       .  S
Mg1076     O1298   2.167       .  S
Mg1076     O1296   2.310       .  S
C1078      N1190   1.425       .  S
C1078      O1083   1.273       .  A
O1079      C1080   1.269       .  A
Mg1082     O1288   2.315       .  S
O1083     Mg1275   2.290       .  S
O1084     Mg1527   2.280       .  S
O1085     Mg1087   2.151       .  S
C1086      H1125   1.081       .  S
C1086      O1099   1.236       .  S
C1086      O1123   1.269       .  A
Mg1087     O1588   2.167       .  S
Mg1087     O1131   2.303       .  S
Mg1087     O1599   2.282       .  S
Mg1087     O1570   2.289       .  S
O1088     Mg1602   2.167       .  S
O1088     Mg1113   2.137       .  S
O1088      C1581   1.236       .  S
O1089      C1120   1.269       .  A
O1089     Mg1113   2.296       .  S
C1090      O1092   1.273       .  A
C1090      O1104   1.273       .  A
O1091      C1119   1.270       .  A
O1092     Mg1124   2.275       .  S
Mg1093     O1099   2.142       .  S
Mg1093     O1095   2.316       .  S
C1094      O1132   1.270       .  A
C1094      O1100   1.273       .  A
O1095      C1102   1.278       .  A
H1096      C1581   1.081       .  S
C1097      O1112   1.268       .  A
O1098      C1121   1.268       .  A
O1098     Mg1559   2.289   1_545  S
O1099     Mg1113   2.167       .  S
O1100     Mg1130   2.288       .  S
C1101      O1114   1.270       .  A
C1101      O1106   1.276       .  A
C1102      O1129   1.272       .  A
Mg1103     O1110   2.133       .  S
Mg1103     O1104   2.289       .  S
O1105      C1109   1.268   1_545  A
O1106     Mg1113   2.307       .  S
O1107      C1126   1.274       .  A
O1108      C1128   1.274       .  A
O1108     Mg1124   2.301       .  S
C1109      H1568   1.081       .  S
C1109      O1560   1.236       .  S
O1110     Mg1124   2.167       .  S
O1110      C1121   1.235       .  S
O1111     Mg1130   2.131       .  S
O1112     Mg1124   2.287       .  S
Mg1113     O1129   2.272       .  S
O1114     Mg1602   2.256       .  S
O1116     Mg1559   2.167   1_545  S
O1116     Mg1124   2.148       .  S
O1116      C1591   1.236       .  S
H1117      C1591   1.081       .  S
H1118      C1121   1.081       .  S
C1119      H1589   1.081       .  S
C1119      O1588   1.236       .  S
O1123     Mg1602   2.292       .  S
C1126      O1131   1.276       .  A
O1127      C1128   1.274       .  A
O1127     Mg1559   2.282   1_545  S
Mg1130     O1560   2.167   1_545  S
Mg1130     O1586   2.256   1_545  S
Mg1130     O1595   2.292   1_545  S
C1133      C1134   1.406       .  A
C1133      C1138   1.412       .  A
C1134      C1135   1.404       .  A
C1134      H1139   1.081       .  S
C1135      C1136   1.413       .  A
C1135      O1140   1.375       .  S
C1136      C1137   1.406       .  A
C1137      C1138   1.402       .  A
C1137      H1141   1.081       .  S
C1138      O1142   1.375       .  S
O1140      H1144   0.992       .  S
O1142      H1143   0.993       .  S
C1145      C1146   1.406       .  A
C1145      C1150   1.413       .  A
C1146      C1147   1.404       .  A
C1146      H1151   1.081       .  S
C1147      C1148   1.413       .  A
C1147      O1152   1.375       .  S
C1148      C1149   1.406       .  A
C1149      C1150   1.403       .  A
C1149      H1153   1.081       .  S
C1150      O1154   1.375       .  S
O1152      H1156   0.992       .  S
O1154      H1155   0.992       .  S
C1157      C1158   1.406       .  A
C1157      C1162   1.414       .  A
C1158      C1159   1.398       .  A
C1158      H1163   1.081       .  S
C1159      C1160   1.413       .  A
C1159      O1164   1.371       .  S
C1160      C1161   1.406       .  A
C1161      C1162   1.405       .  A
C1161      H1165   1.081       .  S
C1162      O1166   1.375       .  S
O1164      H1168   0.991       .  S
O1166      H1167   0.991       .  S
C1169      C1170   1.407       .  A
C1169      C1174   1.412       .  A
C1170      C1171   1.405       .  A
C1170      H1175   1.081       .  S
C1171      C1172   1.413       .  A
C1171      O1176   1.376       .  S
C1172      C1173   1.406       .  A
C1173      C1174   1.403       .  A
C1173      H1177   1.082       .  S
C1174      O1178   1.375       .  S
O1176      H1180   0.992       .  S
O1178      H1179   0.992       .  S
C1181      C1183   1.522       .  S
C1181      C1185   1.537       .  S
C1181      C1184   1.538       .  S
C1181      C1408   1.532       .  S
C1182      C1186   1.536       .  S
C1182      C1188   1.554       .  S
C1182      C1187   1.553       .  S
C1182      C1393   1.529       .  S
C1183      C1191   1.368       .  A
C1184      C1195   1.375       .  A
C1185      C1199   1.373       .  A
C1186      C1189   1.383       .  A
C1187      C1193   1.390       .  A
C1188      C1196   1.391       .  A
C1189      H1202   1.082       .  S
N1190      C1191   1.353       .  A
C1191      H1192   1.083       .  S
C1193      H1203   1.081       .  S
C1193      N1194   1.358       .  A
N1194      C1278   1.429       .  S
C1195      H1201   1.082       .  S
C1196      H1198   1.081       .  S
C1196      N1197   1.358       .  A
N1197      C1289   1.429       .  S
C1199      H1200   1.081       .  S
C1204      C1206   1.536       .  S
C1204      C1208   1.554       .  S
C1204      C1207   1.555       .  S
C1204      C1405   1.528       .  S
C1205      C1209   1.520       .  S
C1205      C1211   1.538       .  S
C1205      C1210   1.537       .  S
C1205      C1396   1.530       .  S
C1206      C1214   1.384       .  A
C1206      C1209   1.388       .  A
C1207      C1218   1.391       .  A
C1207      C1210   1.398       .  A
C1208      C1222   1.389       .  A
C1208      C1211   1.399       .  A
C1209      C1212   1.367       .  A
C1210      C1216   1.373       .  A
C1211      C1219   1.374       .  A
C1212      H1225   1.083       .  S
C1212      N1213   1.352       .  A
N1213      C1214   1.358       .  A
N1213      C1330   1.424       .  S
C1214      H1215   1.082       .  S
C1216      H1226   1.082       .  S
C1216      N1217   1.350       .  A
N1217      C1218   1.359       .  A
N1217      C1338   1.430       .  S
C1218      H1224   1.082       .  S
C1219      H1221   1.082       .  S
C1219      N1220   1.351       .  A
N1220      C1222   1.357       .  A
N1220      C1364   1.429       .  S
C1222      H1223   1.081       .  S
C1227      C1229   1.556       .  S
C1227      C1231   1.540       .  S
C1227      C1230   1.548       .  S
C1227      C1384   1.528       .  S
C1228      C1232   1.539   1_556  S
C1228      C1234   1.532   1_556  S
C1228      C1233   1.524   1_556  S
C1228      C1372   1.530       .  S
C1229      C1237   1.391       .  A
C1230      C1241   1.387       .  A
C1231      C1245   1.385       .  A
C1232      C1235   1.376   1_554  A
C1233      C1239   1.369   1_554  A
C1234      C1242   1.370   1_554  A
C1235      H1248   1.082       .  S
N1236      C1237   1.359       .  A
N1236      C1282   1.432       .  S
C1237      H1238   1.082       .  S
C1239      H1249   1.083       .  S
N1240      C1241   1.357       .  A
N1240      C1290   1.425       .  S
C1241      H1247   1.080       .  S
C1242      H1244   1.081       .  S
N1243      C1245   1.357       .  A
N1243      C1316   1.425       .  S
C1245      H1246   1.082       .  S
C1250      C1252   1.537       .  S
C1250      C1254   1.534       .  S
C1250      C1253   1.526       .  S
C1250      C1381   1.530       .  S
C1251      C1255   1.554       .  S
C1251      C1257   1.541       .  S
C1251      C1256   1.549       .  S
C1251      C1369   1.527       .  S
C1252      C1260   1.373       .  A
C1252      C1255   1.396       .  A
C1253      C1264   1.369       .  A
C1253      C1256   1.394       .  A
C1254      C1268   1.372       .  A
C1254      C1257   1.394       .  A
C1255      C1258   1.390       .  A
C1256      C1262   1.389       .  A
C1257      C1265   1.385       .  A
C1258      H1271   1.081       .  S
C1258      N1259   1.358       .  A
N1259      C1260   1.351       .  A
N1259      C1362   1.430       .  S
C1260      H1261   1.081       .  S
C1262      H1272   1.081       .  S
C1262      N1263   1.358       .  A
N1263      C1264   1.351       .  A
N1263      C1326   1.426       .  S
C1264      H1270   1.083       .  S
C1265      H1267   1.082       .  S
C1265      N1266   1.358       .  A
N1266      C1268   1.351       .  A
N1266      C1337   1.426       .  S
C1268      H1269   1.082       .  S
O1273     Mg1275   2.127       .  S
O1273     Mg1517   2.171   1_545  S
O1273      C1780   1.235       .  S
C1274      H1313   1.081       .  S
C1274      O1287   1.235       .  S
C1274      O1311   1.268       .  A
O1276     Mg1301   2.148       .  S
O1277      C1308   1.267       .  A
O1277     Mg1301   2.286       .  S
C1278      O1280   1.271       .  A
C1278      O1292   1.278       .  A
O1279      C1307   1.268   1_655  A
O1279     Mg1753   2.286   1_545  S
O1280     Mg1312   2.266       .  S
Mg1281     O1509   2.170   1_556  S
Mg1281     O1287   2.137       .  S
Mg1281     O1751   2.286       .  S
Mg1281     O1767   2.261       .  S
C1282      O1320   1.274       .  A
C1282      O1288   1.277       .  A
O1283      C1290   1.272       .  A
C1285      H1782   1.081       .  S
C1285      O1771   1.236       .  S
C1285      O1300   1.270   1_565  A
O1286      C1309   1.269       .  A
C1289      O1302   1.275       .  A
C1289      O1294   1.274       .  A
C1290      O1317   1.273       .  A
Mg1291     O1298   2.146       .  S
Mg1291     O1535   2.171   1_545  S
Mg1291     O1765   2.296   1_545  S
Mg1291     O1792   2.279   1_545  S
O1293      C1297   1.269       .  A
O1293     Mg1763   2.296       .  S
O1295      C1314   1.270       .  A
O1295     Mg1753   2.261   1_545  S
O1296      C1316   1.276       .  A
O1298      C1309   1.236       .  S
O1299     Mg1527   2.170   1_556  S
O1299     Mg1318   2.152       .  S
O1299      C1757   1.236       .  S
O1300     Mg1312   2.297       .  S
Mg1301     O1317   2.272       .  S
H1303      C1780   1.081       .  S
O1304     Mg1312   2.133       .  S
H1306      C1309   1.081       .  S
C1308      H1775   1.081       .  S
C1308      O1745   1.235       .  S
H1310      C1757   1.081       .  S
C1314      O1319   1.273       .  A
O1315      C1316   1.269       .  A
O1320     Mg1763   2.279       .  S
O1321     Mg1323   2.151       .  S
C1322      H1361   1.081       .  S
C1322      O1335   1.235       .  S
C1322      O1359   1.269       .  A
Mg1323     O1824   2.168       .  S
Mg1323     O1367   2.303       .  S
Mg1323     O1835   2.281       .  S
Mg1323     O1806   2.289       .  S
O1324     Mg1838   2.167       .  S
O1324     Mg1349   2.137       .  S
O1324      C1817   1.236       .  S
O1325      C1356   1.269       .  A
O1325     Mg1349   2.296       .  S
C1326      O1328   1.273       .  A
C1326      O1340   1.273       .  A
O1327      C1355   1.269       .  A
O1328     Mg1360   2.274       .  S
Mg1329     O1335   2.142       .  S
Mg1329     O1331   2.316       .  S
C1330      O1368   1.270       .  A
C1330      O1336   1.273       .  A
O1331      C1338   1.278       .  A
H1332      C1817   1.081       .  S
C1333      O1348   1.268       .  A
O1334      C1357   1.268       .  A
O1334     Mg1795   2.289   1_545  S
O1335     Mg1349   2.166       .  S
O1336     Mg1366   2.288       .  S
C1337      O1350   1.270       .  A
C1337      O1342   1.276       .  A
C1338      O1365   1.272       .  A
Mg1339     O1346   2.134       .  S
Mg1339     O1340   2.290       .  S
O1341      C1345   1.268   1_545  A
O1342     Mg1349   2.307       .  S
O1343      C1362   1.274       .  A
O1344      C1364   1.274       .  A
O1344     Mg1360   2.300       .  S
C1345      H1804   1.081       .  S
C1345      O1796   1.236       .  S
O1346     Mg1360   2.167       .  S
O1346      C1357   1.235       .  S
O1347     Mg1366   2.132       .  S
O1348     Mg1360   2.287       .  S
Mg1349     O1365   2.271       .  S
O1350     Mg1838   2.256       .  S
O1352     Mg1795   2.168   1_545  S
O1352     Mg1360   2.148       .  S
O1352      C1827   1.236       .  S
H1353      C1827   1.081       .  S
H1354      C1357   1.081       .  S
C1355      H1825   1.081       .  S
C1355      O1824   1.236       .  S
O1359     Mg1838   2.291       .  S
C1362      O1367   1.276       .  A
O1363      C1364   1.274       .  A
O1363     Mg1795   2.281   1_545  S
Mg1366     O1796   2.167   1_545  S
Mg1366     O1822   2.256   1_545  S
Mg1366     O1831   2.291   1_545  S
C1369      C1370   1.406       .  A
C1369      C1374   1.412       .  A
C1370      C1371   1.404       .  A
C1370      H1375   1.081       .  S
C1371      C1372   1.413       .  A
C1371      O1376   1.375       .  S
C1372      C1373   1.406       .  A
C1373      C1374   1.402       .  A
C1373      H1377   1.081       .  S
C1374      O1378   1.375       .  S
O1376      H1380   0.992       .  S
O1378      H1379   0.993       .  S
C1381      C1382   1.406       .  A
C1381      C1386   1.413       .  A
C1382      C1383   1.404       .  A
C1382      H1387   1.081       .  S
C1383      C1384   1.412       .  A
C1383      O1388   1.375       .  S
C1384      C1385   1.406       .  A
C1385      C1386   1.403       .  A
C1385      H1389   1.081       .  S
C1386      O1390   1.376       .  S
O1388      H1392   0.992       .  S
O1390      H1391   0.992       .  S
C1393      C1394   1.406       .  A
C1393      C1398   1.414       .  A
C1394      C1395   1.398       .  A
C1394      H1399   1.081       .  S
C1395      C1396   1.413       .  A
C1395      O1400   1.371       .  S
C1396      C1397   1.406       .  A
C1397      C1398   1.405       .  A
C1397      H1401   1.081       .  S
C1398      O1402   1.375       .  S
O1400      H1404   0.991       .  S
O1402      H1403   0.991       .  S
C1405      C1406   1.407       .  A
C1405      C1410   1.413       .  A
C1406      C1407   1.405       .  A
C1406      H1411   1.081       .  S
C1407      C1408   1.413       .  A
C1407      O1412   1.376       .  S
C1408      C1409   1.406       .  A
C1409      C1410   1.402       .  A
C1409      H1413   1.082       .  S
C1410      O1414   1.375       .  S
O1412      H1416   0.992       .  S
O1414      H1415   0.992       .  S
C1417      C1419   1.522   1_554  S
C1417      C1421   1.538   1_554  S
C1417      C1420   1.538   1_554  S
C1417      C1644   1.531       .  S
C1418      C1422   1.536       .  S
C1418      C1424   1.554       .  S
C1418      C1423   1.553       .  S
C1418      C1629   1.529       .  S
C1419      C1427   1.368   1_556  A
C1419      C1658   1.389       .  A
C1420      C1431   1.375   1_556  A
C1420      C1659   1.398       .  A
C1421      C1435   1.373   1_556  A
C1421      C1660   1.399       .  A
C1422      C1655   1.389       .  A
C1422      C1425   1.383       .  A
C1423      C1656   1.398       .  A
C1423      C1429   1.390       .  A
C1424      C1657   1.399       .  A
C1424      C1432   1.391       .  A
C1425      H1438   1.082       .  S
C1425      N1662   1.359       .  A
N1426      C1661   1.359       .  A
N1426      C1427   1.353   1_556  A
N1426      C1786   1.425       .  S
C1427      H1428   1.083       .  S
C1429      H1439   1.081       .  S
C1429      N1430   1.358       .  A
N1430      C1667   1.350       .  A
N1430      C1514   1.429       .  S
C1431      H1437   1.082       .  S
C1431      N1666   1.350   1_554  A
C1432      H1434   1.081       .  S
C1432      N1433   1.358       .  A
N1433      C1671   1.351       .  A
N1433      C1525   1.429       .  S
C1435      H1436   1.081       .  S
C1435      N1669   1.351   1_554  A
C1440      C1442   1.536       .  S
C1440      C1444   1.554       .  S
C1440      C1443   1.555       .  S
C1440      C1641   1.528       .  S
C1441      C1445   1.520       .  S
C1441      C1447   1.538       .  S
C1441      C1446   1.537       .  S
C1441      C1632   1.530       .  S
C1442      C1450   1.384       .  A
C1442      C1445   1.388       .  A
C1443      C1454   1.391       .  A
C1443      C1446   1.398       .  A
C1444      C1458   1.389       .  A
C1444      C1447   1.399       .  A
C1445      C1448   1.367       .  A
C1446      C1452   1.373       .  A
C1447      C1455   1.374       .  A
C1448      H1461   1.083       .  S
C1448      N1449   1.352       .  A
N1449      C1450   1.358       .  A
N1449      C1566   1.423       .  S
C1450      H1451   1.082       .  S
C1452      H1462   1.082       .  S
C1452      N1453   1.350       .  A
N1453      C1454   1.359       .  A
N1453      C1574   1.430       .  S
C1454      H1460   1.082       .  S
C1455      H1457   1.082       .  S
C1455      N1456   1.351       .  A
N1456      C1458   1.357       .  A
N1456      C1600   1.429       .  S
C1458      H1459   1.081       .  S
C1463      C1465   1.555       .  S
C1463      C1467   1.541       .  S
C1463      C1466   1.548       .  S
C1463      C1620   1.528       .  S
C1464      C1468   1.539       .  S
C1464      C1470   1.532       .  S
C1464      C1469   1.525       .  S
C1464      C1608   1.530       .  S
C1465      C1473   1.391       .  A
C1465      C1704   1.397       .  A
C1466      C1477   1.387       .  A
C1466      C1705   1.394       .  A
C1467      C1481   1.385       .  A
C1467      C1706   1.394       .  A
C1468      C1701   1.397       .  A
C1468      C1471   1.375       .  A
C1469      C1702   1.394       .  A
C1469      C1475   1.368       .  A
C1470      C1703   1.394       .  A
C1470      C1478   1.370       .  A
C1471      H1484   1.082       .  S
C1471      N1708   1.352       .  A
N1472      C1707   1.352   1_554  A
N1472      C1473   1.359       .  A
N1472      C1518   1.432       .  S
C1473      H1474   1.082       .  S
C1475      H1485   1.083       .  S
C1475      N1712   1.350       .  A
N1476      C1711   1.350   1_554  A
N1476      C1477   1.357       .  A
N1476      C1526   1.425       .  S
C1477      H1483   1.080       .  S
C1478      H1480   1.081       .  S
C1478      N1715   1.351       .  A
N1479      C1714   1.351   1_554  A
N1479      C1481   1.358       .  A
N1479      C1552   1.425       .  S
C1481      H1482   1.082       .  S
C1486      C1488   1.537       .  S
C1486      C1490   1.534       .  S
C1486      C1489   1.526       .  S
C1486      C1617   1.531       .  S
C1487      C1491   1.554       .  S
C1487      C1493   1.541       .  S
C1487      C1492   1.549       .  S
C1487      C1605   1.528       .  S
C1488      C1496   1.373       .  A
C1488      C1491   1.397       .  A
C1489      C1500   1.369       .  A
C1489      C1492   1.394       .  A
C1490      C1504   1.372       .  A
C1490      C1493   1.394       .  A
C1491      C1494   1.390       .  A
C1492      C1498   1.389       .  A
C1493      C1501   1.385       .  A
C1494      H1507   1.081       .  S
C1494      N1495   1.358       .  A
N1495      C1496   1.351       .  A
N1495      C1598   1.430       .  S
C1496      H1497   1.081       .  S
C1498      H1508   1.081       .  S
C1498      N1499   1.358       .  A
N1499      C1500   1.351       .  A
N1499      C1562   1.426       .  S
C1500      H1506   1.083       .  S
C1501      H1503   1.082       .  S
C1501      N1502   1.358       .  A
N1502      C1504   1.351       .  A
N1502      C1573   1.426       .  S
C1504      H1505   1.082       .  S
O1509     Mg1511   2.127       .  S
C1510      H1549   1.081       .  S
C1510      O1523   1.235       .  S
C1510      O1547   1.268       .  A
Mg1511     O1791   2.291   1_554  S
O1512     Mg1537   2.147       .  S
O1513      C1544   1.268   1_565  A
O1513     Mg1537   2.286       .  S
C1514      O1516   1.272       .  A
C1514      O1528   1.277       .  A
O1515      C1543   1.268   1_655  A
O1516     Mg1548   2.268       .  S
Mg1517     O1523   2.137       .  S
Mg1517     O1755   2.286       .  S
C1518      O1556   1.274       .  A
C1518      O1524   1.277       .  A
O1519      C1526   1.272       .  A
O1519     Mg1753   2.285   1_554  S
C1521      O1536   1.270       .  A
O1522      C1545   1.269       .  A
O1523     Mg1773   2.165       .  S
O1524     Mg1790   2.315   1_554  S
C1525      O1538   1.275       .  A
C1525      O1530   1.274       .  A
C1526      O1553   1.273       .  A
Mg1527     O1534   2.146       .  S
Mg1527     O1764   2.317   1_554  S
O1528     Mg1763   2.317       .  S
O1529      C1533   1.269       .  A
O1530     Mg1773   2.300       .  S
O1531      C1550   1.270       .  A
O1532      C1552   1.276       .  A
O1532     Mg1784   2.310   1_554  S
O1534     Mg1784   2.167   1_554  S
O1534      C1545   1.236       .  S
O1535     Mg1554   2.152       .  S
O1536     Mg1548   2.298       .  S
Mg1537     O1759   2.164   1_554  S
Mg1537     O1766   2.301   1_554  S
Mg1537     O1553   2.271       .  S
O1540     Mg1548   2.134       .  S
H1542      C1545   1.081       .  S
Mg1548     O1770   2.167       .  S
Mg1548     O1768   2.310       .  S
C1550      N1662   1.425       .  S
C1550      O1555   1.273       .  A
O1551      C1552   1.269       .  A
Mg1554     O1760   2.315       .  S
O1555     Mg1747   2.290       .  S
O1557     Mg1559   2.151       .  S
C1558      H1597   1.081       .  S
C1558      O1571   1.236       .  S
C1558      O1595   1.269       .  A
Mg1559     O1603   2.303       .  S
O1560     Mg1585   2.137       .  S
O1561      C1592   1.269       .  A
O1561     Mg1585   2.296       .  S
C1562      O1564   1.273       .  A
C1562      O1576   1.273       .  A
O1563      C1591   1.270   1_565  A
O1564     Mg1596   2.275       .  S
Mg1565     O1571   2.142       .  S
Mg1565     O1567   2.316       .  S
C1566      O1604   1.270       .  A
C1566      O1572   1.273       .  A
O1567      C1574   1.278       .  A
C1569      O1584   1.268       .  A
O1570      C1593   1.268       .  A
O1571     Mg1585   2.167       .  S
O1572     Mg1602   2.288       .  S
C1573      O1586   1.270       .  A
C1573      O1578   1.276       .  A
C1574      O1601   1.272       .  A
Mg1575     O1582   2.133       .  S
Mg1575     O1576   2.289       .  S
O1577      C1581   1.268       .  A
O1578     Mg1585   2.307       .  S
O1579      C1598   1.274       .  A
O1580      C1600   1.274       .  A
O1580     Mg1596   2.301       .  S
O1582     Mg1596   2.167       .  S
O1582      C1593   1.235       .  S
O1583     Mg1602   2.131       .  S
O1584     Mg1596   2.287       .  S
Mg1585     O1601   2.272       .  S
O1588     Mg1596   2.148       .  S
H1590      C1593   1.081       .  S
C1598      O1603   1.276       .  A
O1599      C1600   1.274       .  A
C1605      C1606   1.406       .  A
C1605      C1610   1.412       .  A
C1606      C1607   1.404       .  A
C1606      H1611   1.081       .  S
C1607      C1608   1.413       .  A
C1607      O1612   1.375       .  S
C1608      C1609   1.406       .  A
C1609      C1610   1.402       .  A
C1609      H1613   1.081       .  S
C1610      O1614   1.375       .  S
O1612      H1616   0.992       .  S
O1614      H1615   0.993       .  S
C1617      C1618   1.406       .  A
C1617      C1622   1.413       .  A
C1618      C1619   1.404       .  A
C1618      H1623   1.081       .  S
C1619      C1620   1.413       .  A
C1619      O1624   1.375       .  S
C1620      C1621   1.406       .  A
C1621      C1622   1.403       .  A
C1621      H1625   1.081       .  S
C1622      O1626   1.375       .  S
O1624      H1628   0.992       .  S
O1626      H1627   0.992       .  S
C1629      C1630   1.406       .  A
C1629      C1634   1.414       .  A
C1630      C1631   1.398       .  A
C1630      H1635   1.081       .  S
C1631      C1632   1.413       .  A
C1631      O1636   1.371       .  S
C1632      C1633   1.406       .  A
C1633      C1634   1.405       .  A
C1633      H1637   1.081       .  S
C1634      O1638   1.375       .  S
O1636      H1640   0.991       .  S
O1638      H1639   0.991       .  S
C1641      C1642   1.407       .  A
C1641      C1646   1.412       .  A
C1642      C1643   1.405       .  A
C1642      H1647   1.081       .  S
C1643      C1644   1.413       .  A
C1643      O1648   1.376       .  S
C1644      C1645   1.406       .  A
C1645      C1646   1.403       .  A
C1645      H1649   1.082       .  S
C1646      O1650   1.375       .  S
O1648      H1652   0.992       .  S
O1650      H1651   0.992       .  S
C1653      C1655   1.522       .  S
C1653      C1657   1.537       .  S
C1653      C1656   1.538       .  S
C1653      C1880   1.532       .  S
C1654      C1658   1.536       .  S
C1654      C1660   1.554       .  S
C1654      C1659   1.553       .  S
C1654      C1865   1.529       .  S
C1655      C1663   1.368       .  A
C1656      C1667   1.375       .  A
C1657      C1671   1.373       .  A
C1658      C1661   1.383       .  A
C1659      C1665   1.390       .  A
C1660      C1668   1.391       .  A
C1661      H1674   1.082       .  S
N1662      C1663   1.353       .  A
C1663      H1664   1.083       .  S
C1665      H1675   1.081       .  S
C1665      N1666   1.358       .  A
N1666      C1750   1.429       .  S
C1667      H1673   1.082       .  S
C1668      H1670   1.081       .  S
C1668      N1669   1.358       .  A
N1669      C1761   1.429       .  S
C1671      H1672   1.081       .  S
C1676      C1678   1.536       .  S
C1676      C1680   1.554       .  S
C1676      C1679   1.555       .  S
C1676      C1877   1.528       .  S
C1677      C1681   1.520       .  S
C1677      C1683   1.538       .  S
C1677      C1682   1.537       .  S
C1677      C1868   1.530       .  S
C1678      C1686   1.384       .  A
C1678      C1681   1.388       .  A
C1679      C1690   1.391       .  A
C1679      C1682   1.398       .  A
C1680      C1694   1.389       .  A
C1680      C1683   1.399       .  A
C1681      C1684   1.367       .  A
C1682      C1688   1.373       .  A
C1683      C1691   1.374       .  A
C1684      H1697   1.083       .  S
C1684      N1685   1.352       .  A
N1685      C1686   1.358       .  A
N1685      C1802   1.424       .  S
C1686      H1687   1.082       .  S
C1688      H1698   1.082       .  S
C1688      N1689   1.350       .  A
N1689      C1690   1.359       .  A
N1689      C1810   1.430       .  S
C1690      H1696   1.082       .  S
C1691      H1693   1.082       .  S
C1691      N1692   1.351       .  A
N1692      C1694   1.357       .  A
N1692      C1836   1.429       .  S
C1694      H1695   1.081       .  S
C1699      C1701   1.556       .  S
C1699      C1703   1.540       .  S
C1699      C1702   1.548       .  S
C1699      C1856   1.528       .  S
C1700      C1704   1.539   1_556  S
C1700      C1706   1.532   1_556  S
C1700      C1705   1.524   1_556  S
C1700      C1844   1.530       .  S
C1701      C1709   1.391       .  A
C1702      C1713   1.387       .  A
C1703      C1717   1.385       .  A
C1704      C1707   1.376   1_554  A
C1705      C1711   1.369   1_554  A
C1706      C1714   1.370   1_554  A
C1707      H1720   1.082       .  S
N1708      C1709   1.359       .  A
N1708      C1754   1.432       .  S
C1709      H1710   1.082       .  S
C1711      H1721   1.083       .  S
N1712      C1713   1.357       .  A
N1712      C1762   1.425       .  S
C1713      H1719   1.080       .  S
C1714      H1716   1.081       .  S
N1715      C1717   1.357       .  A
N1715      C1788   1.425       .  S
C1717      H1718   1.082       .  S
C1722      C1724   1.537       .  S
C1722      C1726   1.534       .  S
C1722      C1725   1.526       .  S
C1722      C1853   1.530       .  S
C1723      C1727   1.554       .  S
C1723      C1729   1.541       .  S
C1723      C1728   1.549       .  S
C1723      C1841   1.527       .  S
C1724      C1732   1.373       .  A
C1724      C1727   1.396       .  A
C1725      C1736   1.369       .  A
C1725      C1728   1.394       .  A
C1726      C1740   1.372       .  A
C1726      C1729   1.394       .  A
C1727      C1730   1.390       .  A
C1728      C1734   1.389       .  A
C1729      C1737   1.385       .  A
C1730      H1743   1.081       .  S
C1730      N1731   1.358       .  A
N1731      C1732   1.351       .  A
N1731      C1834   1.430       .  S
C1732      H1733   1.081       .  S
C1734      H1744   1.081       .  S
C1734      N1735   1.358       .  A
N1735      C1736   1.351       .  A
N1735      C1798   1.426       .  S
C1736      H1742   1.083       .  S
C1737      H1739   1.082       .  S
C1737      N1738   1.358       .  A
N1738      C1740   1.351       .  A
N1738      C1809   1.426       .  S
C1740      H1741   1.082       .  S
O1745     Mg1747   2.127       .  S
C1746      H1785   1.081       .  S
C1746      O1759   1.235       .  S
C1746      O1783   1.268       .  A
O1748     Mg1773   2.148       .  S
O1749      C1780   1.267   1_565  A
O1749     Mg1773   2.286       .  S
C1750      O1752   1.271       .  A
C1750      O1764   1.278       .  A
O1751      C1779   1.268   1_655  A
O1752     Mg1784   2.266       .  S
Mg1753     O1759   2.137       .  S
C1754      O1792   1.274       .  A
C1754      O1760   1.277       .  A
O1755      C1762   1.272       .  A
C1757      O1772   1.270       .  A
O1758      C1781   1.269       .  A
C1761      O1774   1.275       .  A
C1761      O1766   1.274       .  A
C1762      O1789   1.273       .  A
Mg1763     O1770   2.146       .  S
O1765      C1769   1.269       .  A
O1767      C1786   1.270       .  A
O1768      C1788   1.276       .  A
O1770      C1781   1.236       .  S
O1771     Mg1790   2.152       .  S
O1772     Mg1784   2.297       .  S
Mg1773     O1789   2.272       .  S
O1776     Mg1784   2.133       .  S
H1778      C1781   1.081       .  S
C1786      O1791   1.273       .  A
O1787      C1788   1.269       .  A
O1793     Mg1795   2.151       .  S
C1794      H1833   1.081       .  S
C1794      O1807   1.235       .  S
C1794      O1831   1.269       .  A
Mg1795     O1839   2.303       .  S
O1796     Mg1821   2.137       .  S
O1797      C1828   1.269       .  A
O1797     Mg1821   2.296       .  S
C1798      O1800   1.273       .  A
C1798      O1812   1.273       .  A
O1799      C1827   1.269   1_565  A
O1800     Mg1832   2.274       .  S
Mg1801     O1807   2.142       .  S
Mg1801     O1803   2.316       .  S
C1802      O1840   1.270       .  A
C1802      O1808   1.273       .  A
O1803      C1810   1.278       .  A
C1805      O1820   1.268       .  A
O1806      C1829   1.268       .  A
O1807     Mg1821   2.166       .  S
O1808     Mg1838   2.288       .  S
C1809      O1822   1.270       .  A
C1809      O1814   1.276       .  A
C1810      O1837   1.272       .  A
Mg1811     O1818   2.134       .  S
Mg1811     O1812   2.290       .  S
O1813      C1817   1.268       .  A
O1814     Mg1821   2.307       .  S
O1815      C1834   1.274       .  A
O1816      C1836   1.274       .  A
O1816     Mg1832   2.300       .  S
O1818     Mg1832   2.167       .  S
O1818      C1829   1.235       .  S
O1819     Mg1838   2.132       .  S
O1820     Mg1832   2.287       .  S
Mg1821     O1837   2.271       .  S
O1824     Mg1832   2.148       .  S
H1826      C1829   1.081       .  S
C1834      O1839   1.276       .  A
O1835      C1836   1.274       .  A
C1841      C1842   1.406       .  A
C1841      C1846   1.412       .  A
C1842      C1843   1.404       .  A
C1842      H1847   1.081       .  S
C1843      C1844   1.413       .  A
C1843      O1848   1.375       .  S
C1844      C1845   1.406       .  A
C1845      C1846   1.402       .  A
C1845      H1849   1.081       .  S
C1846      O1850   1.375       .  S
O1848      H1852   0.992       .  S
O1850      H1851   0.993       .  S
C1853      C1854   1.406       .  A
C1853      C1858   1.413       .  A
C1854      C1855   1.404       .  A
C1854      H1859   1.081       .  S
C1855      C1856   1.412       .  A
C1855      O1860   1.375       .  S
C1856      C1857   1.406       .  A
C1857      C1858   1.403       .  A
C1857      H1861   1.081       .  S
C1858      O1862   1.376       .  S
O1860      H1864   0.992       .  S
O1862      H1863   0.992       .  S
C1865      C1866   1.406       .  A
C1865      C1870   1.414       .  A
C1866      C1867   1.398       .  A
C1866      H1871   1.081       .  S
C1867      C1868   1.413       .  A
C1867      O1872   1.371       .  S
C1868      C1869   1.406       .  A
C1869      C1870   1.405       .  A
C1869      H1873   1.081       .  S
C1870      O1874   1.375       .  S
O1872      H1876   0.991       .  S
O1874      H1875   0.991       .  S
C1877      C1878   1.407       .  A
C1877      C1882   1.413       .  A
C1878      C1879   1.405       .  A
C1878      H1883   1.081       .  S
C1879      C1880   1.413       .  A
C1879      O1884   1.376       .  S
C1880      C1881   1.406       .  A
C1881      C1882   1.402       .  A
C1881      H1885   1.082       .  S
C1882      O1886   1.375       .  S
O1884      H1888   0.992       .  S
O1886      H1887   0.992       .  S
