geometry optimzed in LAMMPS
_audit_creation_date              2020-12-01 
_audit_creation_method            'lammps2cif' 
_symmetry_space_group_name_H-M    'P1' 
_symmetry_Int_Tables_number       1 
_symmetry_cell_setting            triclinic 
loop_ 
_symmetry_equiv_pos_as_xyz 
  x,y,z 
_cell_length_a                    38.42962677 
_cell_length_b                    38.595263224602405 
_cell_length_c                    34.64440304244091 
_cell_angle_alpha                 89.46997487042655 
_cell_angle_beta                  89.75687098780509 
_cell_angle_gamma                 120.00257561138069 
loop_ 
_atom_site_label 
_atom_site_type_symbol 
_atom_site_fract_x 
_atom_site_fract_y 
_atom_site_fract_z 
_atom_site_charge 
N1          N  0.00345284  0.47377074  0.03270830    -0.35900
N2          N  0.00096758  0.46542525  0.94868941    -0.56400
N3          N  0.01793125  0.54735392  0.93883416    -0.35900
N4          N  0.01370829  0.55330970  0.02297508    -0.56400
C5          C  0.98740441  0.43366663  0.02965221     0.27700
C6          C  0.99577719  0.48102050  0.06906588     0.27700
C7          C  0.00859535  0.53409991  0.90213520     0.27700
C8          C  0.01364557  0.58001036  0.94174731     0.27700
C9          C  0.99944418  0.43080312  0.95925020     0.36300
C10         C  0.00819812  0.46975058  0.91011698     0.36300
C11         C  0.01995132  0.55369744  0.06144826     0.36300
C12         C  0.02557351  0.59149656  0.01234401     0.36300
C13         C  0.96928922  0.41527830  0.06444835    -0.21200
C14         C  0.97458100  0.44511516  0.08928361    -0.21200
C15         C  0.99868407  0.55885583  0.88149835    -0.21200
C16         C  0.00194656  0.58781580  0.90641720    -0.21200
C17         C  0.00570894  0.41318196  0.92728991    -0.22200
C18         C  0.01131824  0.43781672  0.89627087    -0.22200
C19         C  0.03605077  0.59229558  0.07517993    -0.22200
C20         C  0.03963809  0.61621373  0.04409459    -0.22200
C21         C  0.98988526  0.41337296  0.99674109    -0.17600
C22         C  0.00867963  0.51933196  0.08478848    -0.17600
C23         C  0.02124109  0.60384005  0.97492510    -0.17600
C24         C  0.00915481  0.50048590  0.88666335    -0.17600
H25         H  0.95364953  0.38359681  0.07128286     0.15300
H26         H  0.96375417  0.44074274  0.11881090     0.15300
H27         H  0.98939721  0.55606837  0.85171206     0.15300
H28         H  0.99592530  0.61168357  0.89935204     0.15300
H29         H  0.00595875  0.38528912  0.92630103     0.13600
H30         H  0.01669756  0.43251630  0.86680369     0.13600
H31         H  0.04405734  0.60220624  0.10458974     0.13600
H32         H  0.05103667  0.64812971  0.04488366     0.13600
H33         H  0.02208934  0.49521526  0.01248363     0.26900
H34         H  0.03000629  0.53691941  0.95963211     0.26900
N35         N  0.04971173  0.48091586  0.44671560    -0.35900
N36         N  0.05226624  0.55774204  0.44097217    -0.56400
N37         N  0.05772686  0.56293436  0.52495845    -0.35900
N38         N  0.04805725  0.48263537  0.53091972    -0.56400
C39         C  0.04221716  0.48209676  0.40863618     0.27700
C40         C  0.03955776  0.44268843  0.45574648     0.27700
C41         C  0.05098839  0.59340569  0.51622933     0.27700
C42         C  0.04992568  0.55473842  0.56318518     0.27700
C43         C  0.05912696  0.55337838  0.40347008     0.36300
C44         C  0.06199788  0.59639149  0.44513356     0.36300
C45         C  0.05378552  0.45102345  0.52619590     0.36300
C46         C  0.05836374  0.49493857  0.56769986     0.36300
C47         C  0.02697171  0.44416227  0.39341964    -0.21200
C48         C  0.02522128  0.41937644  0.42304291    -0.21200
C49         C  0.03879197  0.60458232  0.54928213    -0.21200
C50         C  0.03817520  0.58028149  0.57884384    -0.21200
C51         C  0.07336152  0.58949468  0.38377908    -0.22200
C52         C  0.07505150  0.61666532  0.41011609    -0.22200
C53         C  0.06773145  0.44325520  0.56017327    -0.22200
C54         C  0.07053600  0.47098472  0.58645190    -0.22200
C55         C  0.05101134  0.51677475  0.38657327    -0.17600
C56         C  0.04592579  0.42884495  0.49171869    -0.17600
C57         C  0.05539891  0.52654670  0.58488427    -0.17600
C58         C  0.05771487  0.61303650  0.47987349    -0.17600
H59         H  0.01831639  0.43523746  0.36387970     0.15300
H60         H  0.01502206  0.38779140  0.42057045     0.15300
H61         H  0.03123570  0.62797672  0.55192063     0.15300
H62         H  0.03006504  0.58139761  0.60857535     0.15300
H63         H  0.08188841  0.59584184  0.35363284     0.13600
H64         H  0.08509413  0.64784592  0.40411590     0.13600
H65         H  0.07571741  0.42045388  0.56546166     0.13600
H66         H  0.08084554  0.47347298  0.61585292     0.13600
H67         H  0.06542345  0.50558172  0.46421188     0.26900
H68         H  0.07128940  0.55158608  0.50703893     0.26900
O69         O  0.99907173  0.94409731  0.03204752    -0.87600
C70         C  0.05732415  0.03102528  0.95029810     0.88400
Mg71       Mg  0.93651094  0.90125050  0.02658902     1.58100
O72         O  0.03275166  0.06442362  0.03476614    -0.87400
O73         O  0.03665713  0.99083958  0.07264998    -0.74700
C74         C  0.84426545  0.00300217  0.97874198     0.93500
O75         O  0.98525194  0.93841584  0.94070692    -0.74500
O76         O  0.84329607  0.97027961  0.97148123    -0.82000
Mg77       Mg  0.03692470  0.95251296  0.98264855     1.58000
C78         C  0.98707876  0.14256975  0.02659992     0.93400
O79         O  0.09365601  0.96496596  0.01791478    -0.80300
H80         H  0.03774512  0.07404305  0.09160233    -0.05600
C81         C  0.95742045  0.04242906  0.94497843     0.88300
O82         O  0.91917485  0.93889400  0.06486079    -0.74800
O83         O  0.05429791  0.01506813  0.98224657    -0.87500
O84         O  0.01741304  0.13920118  0.01736981    -0.80300
C85         C  0.12841525  0.13779103  0.99440794     0.93500
C86         C  0.12397399  0.99536626  0.03244175     0.93400
Mg87       Mg  0.93156564  0.04539931  0.02808718     1.58000
O88         O  0.87469299  0.03248889  0.99409786    -0.80300
O89         O  0.98322192  0.05969737  0.06993850    -0.74500
O90         O  0.12441725  0.10462685  0.00606183    -0.80400
O91         O  0.01693266  0.88584654  0.98286996    -0.82100
O92         O  0.84342711  0.89308391  0.00561333    -0.80400
C93         C  0.01906331  0.06672671  0.06633112     0.87800
O94         O  0.91412117  0.98279551  0.02809661    -0.87500
O95         O  0.96898406  0.05348392  0.97819774    -0.87600
O96         O  0.93133780  0.00647413  0.93768779    -0.74700
Mg97       Mg  0.07735124  0.04647003  0.03584635     1.58000
O98         O  0.09826269  0.14233523  0.98847399    -0.82100
H99         H  0.99711130  0.93360702  0.08882037    -0.05800
O100        O  0.93491608  0.93261858  0.97552376    -0.87300
H101        H  0.93091554  0.92403561  0.91851067    -0.05600
H102        H  0.90208834  0.97749366  0.08472838    -0.05800
C103        C  0.94922586  0.93101997  0.94402243     0.87800
C104        C  0.01064280  0.95492081  0.06527132     0.88400
C105        C  0.91099457  0.96675242  0.06000344     0.88400
H106        H  0.97106145  0.06358390  0.92132533    -0.05800
O107        O  0.04902867  0.05880288  0.94538448    -0.74800
Mg108      Mg  0.89034775  0.95102995  0.97459705     1.58000
H109        H  0.06621451  0.02025331  0.92558318    -0.05800
C110        C  0.98185366  0.85507426  0.98498800     0.93400
O111        O  0.86998746  0.85549761  0.02267486    -0.82000
C112        C  0.83972877  0.86006424  0.01754448     0.93400
O113        O  0.12434495  0.02799291  0.03823805    -0.82000
Mg114      Mg  0.03164231  0.09621788  0.98394702     1.58200
O115        O  0.95091249  0.85754245  0.99401172    -0.80300
O116        O  0.95149922  0.11246239  0.02800133    -0.82000
O117        O  0.02467820  0.94646451  0.51358070    -0.87600
C118        C  0.06636695  0.02902167  0.42560247     0.88400
Mg119      Mg  0.96375586  0.89822994  0.51578840     1.58100
O120        O  0.05097851  0.06548554  0.51302198    -0.87400
O121        O  0.06659350  0.99773953  0.54799041    -0.74700
C122        C  0.85353312  0.98326503  0.47918025     0.93500
O123        O  0.99898212  0.93325334  0.42416846    -0.74500
O124        O  0.85373989  0.95095152  0.47293068    -0.82000
Mg125      Mg  0.05617818  0.95460960  0.45982646     1.58000
C126        C  0.99135354  0.13199921  0.51231603     0.93400
O127        O  0.11590585  0.97249938  0.48918546    -0.80300
H128        H  0.06140393  0.07586504  0.56939367    -0.05600
C129        C  0.96152922  0.02844234  0.43420685     0.88300
O130        O  0.94609871  0.93353533  0.55672059    -0.74800
O131        O  0.06853175  0.01572896  0.45754965    -0.87500
O132        O  0.02214173  0.13289945  0.49698704    -0.80300
C133        C  0.13567283  0.14118378  0.46041872     0.93500
C134        C  0.14837730  0.00429985  0.49718100     0.93400
Mg135      Mg  0.94534016  0.03362842  0.51983816     1.58000
O136        O  0.88425120  0.01465831  0.49162923    -0.80300
O137        O  0.00319474  0.05431276  0.55451856    -0.74500
O138        O  0.13778762  0.11066117  0.47162716    -0.80400
O139        O  0.04316014  0.89008969  0.46133652    -0.82100
O140        O  0.86334693  0.87674325  0.50378818    -0.80400
C141        C  0.03974447  0.06612751  0.54636599     0.87800
O142        O  0.93253746  0.97227019  0.52083226    -0.87500
O143        O  0.97681348  0.04264066  0.46567013    -0.87600
O144        O  0.93705222  0.99134747  0.43016202    -0.74700
Mg145      Mg  0.09899591  0.05209367  0.50672060     1.58000
O146        O  0.10241909  0.14076539  0.45837524    -0.82100
H147        H  0.03203346  0.94165713  0.57008882    -0.05800
O148        O  0.95174163  0.92353668  0.46556217    -0.87300
H149        H  0.94062456  0.91114681  0.40955563    -0.05600
H150        H  0.92633877  0.96939938  0.57827889    -0.05800
C151        C  0.96253830  0.92169204  0.43237724     0.87800
C152        C  0.04083285  0.96082197  0.54472377     0.88400
C153        C  0.93415648  0.95867728  0.55281062     0.88400
H154        H  0.97048203  0.04794003  0.40907962    -0.05800
O155        O  0.05471068  0.05442346  0.42192370    -0.74800
Mg156      Mg  0.90392228  0.93656387  0.47026327     1.58000
H157        H  0.07359339  0.01795844  0.40001504    -0.05800
C158        C  0.01044034  0.85737941  0.46724878     0.93400
O159        O  0.89929139  0.84775798  0.51896615    -0.82000
C160        C  0.86574407  0.84645880  0.51539995     0.93400
O161        O  0.15003289  0.03793535  0.50074311    -0.82000
Mg162      Mg  0.03779460  0.09053946  0.46280863     1.58200
O163        O  0.97912810  0.85664509  0.48070213    -0.80300
O164        O  0.95930994  0.09901439  0.51985278    -0.82000
N165        N  0.51667034  0.98815846  0.05221900    -0.35900
N166        N  0.43494682  0.97467668  0.05329335    -0.56400
N167        N  0.43614276  0.97787089  0.96931971    -0.35900
N168        N  0.52009122  0.99601360  0.96866265    -0.56400
C169        C  0.51194537  0.99261569  0.09035927     0.27700
C170        C  0.55636430  0.00247718  0.04550224     0.27700
C171        C  0.40215808  0.97912060  0.97705446     0.27700
C172        C  0.44736516  0.99107286  0.93247335     0.27700
C173        C  0.43792992  0.96548085  0.09046131     0.36300
C174        C  0.39545891  0.96074414  0.04683524     0.36300
C175        C  0.55364823  0.99353379  0.97427605     0.36300
C176        C  0.51146565  0.98975023  0.93065296     0.36300
C177        C  0.54914788  0.00984250  0.10803259    -0.21200
C178        C  0.57709893  0.01626403  0.07977005    -0.21200
C179        C  0.39140940  0.99268501  0.94450338    -0.21200
C180        C  0.41987985  0.00019748  0.91643176    -0.21200
C181        C  0.40017501  0.94576245  0.10772206    -0.22200
C182        C  0.37327006  0.94238920  0.08001556    -0.22200
C183        C  0.56601152  0.98520637  0.93961093    -0.22200
C184        C  0.53976461  0.98359051  0.91192285    -0.22200
C185        C  0.47451419  0.97790391  0.10991862    -0.17600
C186        C  0.57384421  0.00031874  0.01006362    -0.17600
C187        C  0.48025529  0.99265642  0.91223206    -0.17600
C188        C  0.37973002  0.96682871  0.01212668    -0.17600
H189        H  0.55569960  0.01626833  0.13829318     0.15300
H190        H  0.60903330  0.02891473  0.08419206     0.15300
H191        H  0.36572390  0.99682610  0.94122138     0.15300
H192        H  0.42008595  0.01086218  0.88737801     0.15300
H193        H  0.39272271  0.93521721  0.13730173     0.13600
H194        H  0.34107791  0.92825467  0.08409031     0.13600
H195        H  0.59114228  0.98055866  0.93449470     0.13600
H196        H  0.54114804  0.97809208  0.88153787     0.13600
H197        H  0.49376575  0.97156460  0.03310853     0.26900
H198        H  0.44861798  0.96498397  0.98670679     0.26900
N199        N  0.54488872  0.00487367  0.46714800    -0.35900
N200        N  0.47330892  0.01237053  0.46705177    -0.56400
N201        N  0.47196874  0.00932047  0.55185695    -0.35900
N202        N  0.53948121  0.99554565  0.55100580    -0.56400
C203        C  0.53398157  0.99780651  0.42961403     0.27700
C204        C  0.57009420  0.99057875  0.47400586     0.27700
C205        C  0.43625346  0.00662033  0.54388613     0.27700
C206        C  0.46927650  0.99457200  0.58814490     0.27700
C207        C  0.48554051  0.02232355  0.42986476     0.36300
C208        C  0.44875097  0.02720119  0.47471425     0.36300
C209        C  0.57626033  0.99984907  0.54503787     0.36300
C210        C  0.53584216  0.99881339  0.58949752     0.36300
C211        C  0.55219795  0.97851530  0.41252100    -0.21200
C212        C  0.57469840  0.97364693  0.44058881    -0.21200
C213        C  0.41061592  0.99016555  0.57546156    -0.21200
C214        C  0.43130374  0.98224922  0.60323456    -0.21200
C215        C  0.46890614  0.04372257  0.41393517    -0.22200
C216        C  0.44572372  0.04695176  0.44238234    -0.22200
C217        C  0.59612484  0.00625534  0.57991522    -0.22200
C218        C  0.57037496  0.00521776  0.60805394    -0.22200
C219        C  0.51022701  0.01075536  0.40991046    -0.17600
C220        C  0.59060104  0.99454013  0.50911235    -0.17600
C221        C  0.50082155  0.99357261  0.60836795    -0.17600
C222        C  0.42702498  0.02066420  0.50971546    -0.17600
H223        H  0.54961492  0.96897905  0.38287513     0.15300
H224        H  0.59247726  0.95929811  0.43668503     0.15300
H225        H  0.38004497  0.98424961  0.57815561     0.15300
H226        H  0.41958238  0.96898091  0.63134962     0.15300
H227        H  0.47325289  0.05605463  0.38498342     0.13600
H228        H  0.42861931  0.06213590  0.43948008     0.13600
H229        H  0.62585145  0.01067857  0.58485042     0.13600
H230        H  0.57639812  0.00877220  0.63868730     0.13600
H231        H  0.53931952  0.02259436  0.48577278     0.26900
H232        H  0.49786448  0.02425138  0.53491535     0.26900
N233        N  0.43984959  0.46554296  0.04380164    -0.35900
N234        N  0.52315138  0.52943504  0.05093599    -0.56400
N235        N  0.53337655  0.52934002  0.96741184    -0.35900
N236        N  0.45135134  0.46301210  0.96062339    -0.56400
C237        C  0.44377530  0.46613442  0.08268087     0.27700
C238        C  0.40609720  0.43096538  0.03505776     0.27700
C239        C  0.57189754  0.55428043  0.97799634     0.27700
C240        C  0.53403047  0.51873844  0.93031564     0.27700
C241        C  0.51087548  0.52802872  0.08789315     0.36300
C242        C  0.55984209  0.56261281  0.04747471     0.36300
C243        C  0.41165050  0.43585681  0.96306741     0.36300
C244        C  0.46059539  0.47044466  0.92259388     0.36300
C245        C  0.41185411  0.43184429  0.09876296    -0.21200
C246        C  0.38816205  0.40969835  0.06879363    -0.21200
C247        C  0.59730076  0.55999501  0.94699897    -0.21200
C248        C  0.57349853  0.53758730  0.91705334    -0.21200
C249        C  0.54000405  0.56028386  0.10802884    -0.22200
C250        C  0.57116140  0.58174018  0.08274384    -0.22200
C251        C  0.39558015  0.42586526  0.92644582    -0.22200
C252        C  0.42652501  0.44738990  0.90085865    -0.22200
C253        C  0.47475552  0.49694267  0.10439223    -0.17600
C254        C  0.39009366  0.41828775  0.99775750    -0.17600
C255        C  0.49995372  0.49478617  0.90727014    -0.17600
C256        C  0.58445763  0.57436344  0.01376818    -0.17600
H257        H  0.40629188  0.42340002  0.12900098     0.15300
H258        H  0.36088661  0.38098570  0.07159066     0.15300
H259        H  0.62964338  0.57879683  0.94570839     0.15300
H260        H  0.58414970  0.53602224  0.88851444     0.15300
H261        H  0.53931651  0.56753416  0.13800600     0.13600
H262        H  0.59914887  0.60804830  0.09011634     0.13600
H263        H  0.36489381  0.40473513  0.91880298     0.13600
H264        H  0.42399027  0.44530551  0.86980310     0.13600
H265        H  0.45690607  0.48902297  0.02480233     0.26900
H266        H  0.50797609  0.52378314  0.98300915     0.26900
N267        N  0.45472279  0.45391442  0.54357919    -0.35900
N268        N  0.52499104  0.53373640  0.54969353    -0.56400
N269        N  0.53732764  0.53613994  0.46667977    -0.35900
N270        N  0.46352985  0.45786294  0.45997233    -0.56400
C271        C  0.45049076  0.46256056  0.58053220     0.27700
C272        C  0.41950959  0.42157735  0.53331150     0.27700
C273        C  0.56350829  0.57481445  0.47529818     0.27700
C274        C  0.53107320  0.53454858  0.42812967     0.27700
C275        C  0.51667333  0.52546646  0.58778158     0.36300
C276        C  0.56001188  0.56892944  0.54712828     0.36300
C277        C  0.43656942  0.41841785  0.46465698     0.36300
C278        C  0.47940822  0.46232925  0.42411507     0.36300
C279        C  0.41223576  0.43509819  0.59393279    -0.21200
C280        C  0.39270810  0.40940914  0.56417412    -0.21200
C281        C  0.57428438  0.59792717  0.44179381    -0.21200
C282        C  0.55377515  0.57259190  0.41208610    -0.21200
C283        C  0.54638441  0.55597565  0.60936760    -0.22200
C284        C  0.57386430  0.58322485  0.58369379    -0.22200
C285        C  0.43562717  0.39780484  0.43176050    -0.22200
C286        C  0.46262701  0.42560820  0.40607216    -0.22200
C287        C  0.48083302  0.49292650  0.60330506    -0.17600
C288        C  0.41178405  0.40122008  0.49775685    -0.17600
C289        C  0.50727743  0.49942904  0.40672814    -0.17600
C290        C  0.57834367  0.58991862  0.51244685    -0.17600
H291        H  0.39963287  0.43336001  0.62234969     0.15300
H292        H  0.36227037  0.38439457  0.56532057     0.15300
H293        H  0.59455418  0.62985182  0.43902981     0.15300
H294        H  0.55545663  0.58130298  0.38204984     0.15300
H295        H  0.54782297  0.55923945  0.64036784     0.13600
H296        H  0.60047634  0.61095406  0.59118815     0.13600
H297        H  0.41772548  0.36600757  0.42675821     0.13600
H298        H  0.46937944  0.41935175  0.37749346     0.13600
H299        H  0.48140775  0.46636860  0.52784355     0.26900
H300        H  0.52743203  0.51165899  0.48524193     0.26900
C301        C  0.49193340  0.49996697  0.79573026     0.19400
C302        C  0.46655976  0.50685109  0.77175237    -0.18700
C303        C  0.46700395  0.50260352  0.73170658    -0.10900
C304        C  0.49301113  0.49125163  0.71449100     0.21700
C305        C  0.51831014  0.48426531  0.73847627    -0.20300
C306        C  0.51791501  0.48858558  0.77852646    -0.11100
C307        C  0.49663299  0.48853998  0.67185364    -0.15300
C308        C  0.47290229  0.49223748  0.64556684    -0.29100
C309        C  0.48996337  0.50498853  0.83822577    -0.03400
C310        C  0.50663668  0.49248690  0.86512211    -0.40000
H311        H  0.44626328  0.51570981  0.78406762     0.12800
H312        H  0.44737457  0.50901040  0.71468934     0.12500
H313        H  0.53894052  0.47586501  0.72611268     0.11900
H314        H  0.53850658  0.48352062  0.79547339     0.12100
H315        H  0.52105912  0.48453681  0.66124926     0.14900
H316        H  0.44688377  0.49420519  0.65433351     0.13600
H317        H  0.47203172  0.51783004  0.84821303     0.11300
H318        H  0.52503981  0.47972008  0.85698773     0.13300
C319        C  0.48588480  0.49056725  0.29666769     0.19400
C320        C  0.45293320  0.48478842  0.27451428    -0.18700
C321        C  0.45507364  0.48609805  0.23413777    -0.10900
C322        C  0.49042843  0.49312018  0.21488418     0.21700
C323        C  0.52317438  0.49839465  0.23710121    -0.20300
C324        C  0.52101655  0.49706811  0.27743307    -0.11100
C325        C  0.49461103  0.49444474  0.17200097    -0.15300
C326        C  0.46852126  0.49584889  0.14705549    -0.29100
C327        C  0.48175168  0.48809813  0.33951613    -0.03400
C328        C  0.51298481  0.50204251  0.36393025    -0.40000
H329        H  0.42530550  0.47918564  0.28853223     0.12800
H330        H  0.42871411  0.48102444  0.21851494     0.12500
H331        H  0.55063815  0.50342460  0.22316164     0.11900
H332        H  0.54671387  0.50039366  0.29316312     0.12100
H333        H  0.52111840  0.49498081  0.16012902     0.14900
H334        H  0.44109326  0.49434068  0.15717801     0.13600
H335        H  0.45159691  0.47509448  0.35166425     0.11300
H336        H  0.54355223  0.51827105  0.35286432     0.13300
C337        C  0.48342657  0.99492775  0.71945811     0.19400
C338        C  0.48350227  0.02339729  0.74449834    -0.18700
C339        C  0.47970763  0.01681830  0.78453296    -0.10900
C340        C  0.47571349  0.98137727  0.80070343     0.21700
C341        C  0.47459199  0.95242262  0.77564815    -0.20300
C342        C  0.47849133  0.95904550  0.73557239    -0.11100
C343        C  0.47170982  0.97313168  0.84323141    -0.15300
C344        C  0.48427729  0.00189994  0.87004390    -0.29100
C345        C  0.48705701  0.00336027  0.67691346    -0.03400
C346        C  0.49644243  0.98363070  0.65068294    -0.40000
H347        H  0.48651020  0.05097885  0.73301645     0.12800
H348        H  0.47926426  0.03935271  0.80249307     0.12500
H349        H  0.47086317  0.92455557  0.78715663     0.11900
H350        H  0.47692193  0.93563475  0.71750995     0.12100
H351        H  0.45928340  0.94229559  0.85301134     0.14900
H352        H  0.49829219  0.03318161  0.86163787     0.13600
H353        H  0.48294679  0.02778354  0.66671369     0.11300
H354        H  0.50410986  0.96146648  0.66022800     0.13300
C355        C  0.48663950  0.00343907  0.21890094     0.19400
C356        C  0.51733677  0.03393149  0.24048863    -0.18700
C357        C  0.51600627  0.03254487  0.28092916    -0.10900
C358        C  0.48350029  0.00078512  0.30075864     0.21700
C359        C  0.45205666  0.97104972  0.27915748    -0.20300
C360        C  0.45367964  0.97211284  0.23869372    -0.11100
C361        C  0.48081440  0.99861091  0.34376926    -0.15300
C362        C  0.51328586  0.01382668  0.36676278    -0.29100
C363        C  0.48927738  0.00615430  0.17594353    -0.03400
C364        C  0.47273283  0.97401939  0.15289843    -0.40000
H365        H  0.54265598  0.05879690  0.22597435     0.12800
H366        H  0.54010502  0.05673311  0.29654456     0.12500
H367        H  0.42627693  0.94669695  0.29367010     0.11900
H368        H  0.42875124  0.94882414  0.22307156     0.12100
H369        H  0.45110212  0.98242817  0.35701192     0.14900
H370        H  0.54303728  0.02655428  0.35383790     0.13600
H371        H  0.50654535  0.03570079  0.16271591     0.11300
H372        H  0.45565980  0.94414308  0.16533158     0.13300
C373        C  0.24609604  0.22677496  0.46163070     0.19400
C374        C  0.27749260  0.23436843  0.48694264    -0.18700
C375        C  0.31139435  0.27256577  0.48918942    -0.10900
C376        C  0.31477042  0.30431526  0.46600574     0.21700
C377        C  0.28412615  0.29624836  0.43948482    -0.20300
C378        C  0.25019797  0.25800345  0.43723797    -0.11100
C379        C  0.34991592  0.34583433  0.46779103    -0.15300
C380        C  0.37698626  0.35931737  0.49655097    -0.29100
C381        C  0.20939628  0.18632252  0.46253120    -0.03400
C382        C  0.17288637  0.17928032  0.45136134    -0.40000
H383        H  0.27546976  0.21076946  0.50566103     0.12800
H384        H  0.33476056  0.27671212  0.50900292     0.12500
H385        H  0.28623285  0.31978163  0.42062314     0.11900
H386        H  0.22744007  0.25316627  0.41633002     0.12100
H387        H  0.35313523  0.36666201  0.44484227     0.14900
H388        H  0.37264102  0.34032157  0.52144356     0.13600
H389        H  0.21170704  0.16231837  0.47671773     0.11300
H390        H  0.16929778  0.20336218  0.43940868     0.13300
C391        C  0.75582491  0.75877392  0.51324202     0.19400
C392        C  0.71740672  0.75470703  0.51292085    -0.18700
C393        C  0.68283666  0.71691120  0.51047439    -0.10900
C394        C  0.68591695  0.68215349  0.50793901     0.23300
C395        C  0.72431336  0.68620357  0.50800047    -0.20300
C396        C  0.75885324  0.72394255  0.51073781    -0.11100
C397        C  0.65006698  0.64155514  0.50337202    -0.15300
C398        C  0.61287548  0.63155938  0.51566673    -0.29100
C399        C  0.79193450  0.79976565  0.51267420    -0.03400
C400        C  0.82886888  0.80753231  0.52314684    -0.40000
H401        H  0.71413780  0.78097735  0.51405823     0.12800
H402        H  0.65391217  0.71523633  0.50938370     0.12500
H403        H  0.72763791  0.66003680  0.50556955     0.11900
H404        H  0.78777794  0.72562947  0.50947033     0.12100
H405        H  0.65464440  0.61838308  0.49086416     0.14900
H406        H  0.60790648  0.65297078  0.53128146     0.13600
H407        H  0.78812735  0.82418496  0.50188763     0.11300
H408        H  0.83297184  0.78374888  0.53508834     0.13300
C409        C  0.25848668  0.02791452  0.49495833     0.19400
C410        C  0.29538163  0.05757278  0.50951574    -0.18700
C411        C  0.32967045  0.05371272  0.50670495    -0.10900
C412        C  0.32776745  0.02021586  0.48877257     0.21700
C413        C  0.29134583  0.99156938  0.47260513    -0.20300
C414        C  0.25703726  0.99520722  0.47575817    -0.11100
C415        C  0.36315844  0.01446136  0.48579061    -0.15300
C416        C  0.39309911  0.02901924  0.51163065    -0.29100
C417        C  0.22241846  0.03257977  0.49850908    -0.03400
C418        C  0.18490646  0.00094609  0.50008374    -0.40000
H419        H  0.29755826  0.08356579  0.52349413     0.12800
H420        H  0.35763561  0.07718102  0.51819109     0.12500
H421        H  0.28929076  0.96597399  0.45788129     0.11900
H422        H  0.22962646  0.97264982  0.46257014     0.12100
H423        H  0.36345165  0.99552934  0.46289590     0.14900
H424        H  0.39114975  0.04447667  0.53684608     0.13600
H425        H  0.22686029  0.06266693  0.49935669     0.11300
H426        H  0.18050412  0.97087623  0.50055157     0.13300
C427        C  0.76775232  0.00640762  0.48927762     0.19400
C428        C  0.75149884  0.01411198  0.52221666    -0.18700
C429        C  0.71481281  0.01335021  0.52043547    -0.10900
C430        C  0.69419615  0.00578241  0.48535786     0.21700
C431        C  0.71071335  0.99873737  0.45222428    -0.20300
C432        C  0.74697244  0.99851505  0.45421087    -0.11100
C433        C  0.65662427  0.00737699  0.48247684    -0.15300
C434        C  0.62738824  0.99062432  0.50949238    -0.29100
C435        C  0.80702439  0.00815172  0.49222460    -0.03400
C436        C  0.81589598  0.98368865  0.47253929    -0.40000
H437        H  0.76718628  0.02058200  0.54943869     0.12800
H438        H  0.70311360  0.01976062  0.54621474     0.12500
H439        H  0.69544125  0.99328382  0.42484238     0.11900
H440        H  0.75921840  0.99325310  0.42817080     0.12100
H441        H  0.65310313  0.02260296  0.45757739     0.14900
H442        H  0.63157580  0.97521951  0.53386944     0.13600
H443        H  0.82801228  0.02793356  0.51361372     0.11300
H444        H  0.79367759  0.96116054  0.45378434     0.13300
C445        C  0.29713799  0.31370386  0.98068659     0.19400
C446        C  0.29225469  0.27555780  0.97496121    -0.18700
C447        C  0.25393881  0.24148224  0.97508738    -0.10900
C448        C  0.21943086  0.24481027  0.98102336     0.21700
C449        C  0.22430130  0.28305940  0.98579774    -0.20300
C450        C  0.26258108  0.31710263  0.98563747    -0.11100
C451        C  0.17794495  0.20951214  0.98222573    -0.15300
C452        C  0.16977721  0.17178407  0.98922835    -0.29100
C453        C  0.33853318  0.34910304  0.98038885    -0.03400
C454        C  0.34786325  0.38462521  0.99571348    -0.40000
H455        H  0.31824626  0.27206138  0.97048659     0.12800
H456        H  0.25171053  0.21285836  0.97001242     0.12500
H457        H  0.19831717  0.28664372  0.98989807     0.11900
H458        H  0.26470451  0.34592504  0.98883432     0.12100
H459        H  0.15304530  0.21517648  0.97955456     0.14900
H460        H  0.19398874  0.16556841  0.99405236     0.13600
H461        H  0.36274663  0.34540907  0.96863819     0.11300
H462        H  0.32520052  0.38832636  0.01083169     0.13300
C463        C  0.75020959  0.75246183  0.03310292     0.19400
C464        C  0.74708443  0.71459548  0.03321671    -0.18700
C465        C  0.70960547  0.67963415  0.03108506    -0.10900
C466        C  0.67416812  0.68176367  0.02869182     0.21700
C467        C  0.67713662  0.71947626  0.03053296    -0.20300
C468        C  0.71457311  0.75441586  0.03274105    -0.11100
C469        C  0.63351114  0.64577066  0.02508517    -0.15300
C470        C  0.62635496  0.60884099  0.01622627    -0.29100
C471        C  0.79114079  0.78868788  0.03213212    -0.03400
C472        C  0.79859188  0.82602193  0.02391967    -0.40000
H473        H  0.77387927  0.71202506  0.03421579     0.12800
H474        H  0.70879688  0.65124525  0.03132048     0.12500
H475        H  0.65031262  0.72200950  0.02971662     0.11900
H476        H  0.71506306  0.78259963  0.03397570     0.12100
H477        H  0.60776483  0.64986326  0.02952502     0.14900
H478        H  0.65083650  0.60369628  0.00896385     0.13600
H479        H  0.81653134  0.78391720  0.03569004     0.11300
H480        H  0.77417750  0.83185704  0.01895731     0.13300
C481        C  0.20647135  0.96553834  0.03686809     0.19400
C482        C  0.21346312  0.93880617  0.01554389    -0.18700
C483        C  0.25096526  0.94101668  0.01611731    -0.10900
C484        C  0.28259970  0.97024277  0.03811268     0.21700
C485        C  0.27500035  0.99564742  0.06097487    -0.20300
C486        C  0.23748625  0.99339824  0.06045866    -0.11100
C487        C  0.32362282  0.97501259  0.03852320    -0.15300
C488        C  0.33775353  0.95993824  0.01162676    -0.29100
C489        C  0.16691247  0.96381716  0.03289835    -0.03400
C490        C  0.16104520  0.99441925  0.04185579    -0.40000
H491        H  0.18999251  0.91652241  0.99771462     0.12800
H492        H  0.25479293  0.91968498  0.99931335     0.12500
H493        H  0.29841775  0.01779782  0.07895640     0.11900
H494        H  0.23317222  0.01356044  0.07865464     0.12100
H495        H  0.34381972  0.99325615  0.06115290     0.14900
H496        H  0.31955899  0.94470230  0.98684956     0.13600
H497        H  0.14267330  0.93767024  0.01927821     0.11300
H498        H  0.18539329  0.02162936  0.05367986     0.13300
C499        C  0.75703470  0.02392236  0.99281743     0.19400
C500        C  0.73660911  0.02274410  0.02693873    -0.18700
C501        C  0.70017280  0.02266152  0.02562467    -0.10900
C502        C  0.68367167  0.02447477  0.99001834     0.21700
C503        C  0.70469674  0.02683371  0.95588577    -0.20300
C504        C  0.74077661  0.02601703  0.95718058    -0.11100
C505        C  0.64491080  0.02436486  0.98772019    -0.15300
C506        C  0.61394760  0.00269415  0.01223893    -0.29100
C507        C  0.79599805  0.02467635  0.99568902    -0.03400
C508        C  0.80798180  0.00592894  0.97090106    -0.40000
H509        H  0.74878577  0.02159098  0.05476006     0.12800
H510        H  0.68537145  0.02192000  0.05252500     0.12500
H511        H  0.69284418  0.02872868  0.92812741     0.11900
H512        H  0.75631107  0.02784266  0.93043277     0.12100
H513        H  0.64116893  0.04096274  0.96418263     0.14900
H514        H  0.61799537  0.98620907  0.03568289     0.13600
H515        H  0.81384309  0.03810689  0.02126811     0.11300
H516        H  0.78853255  0.98864230  0.94745730     0.13300
C517        C  0.02679169  0.32102027  0.51523604     0.19400
C518        C  0.99806949  0.28815135  0.53721402    -0.18700
C519        C  0.99622660  0.25084181  0.53603283    -0.10900
C520        C  0.02332065  0.24546312  0.51278963     0.21700
C521        C  0.05268089  0.27864299  0.49172861    -0.20300
C522        C  0.05452495  0.31580458  0.49289953    -0.11100
C523        C  0.02269513  0.20638914  0.50941748    -0.15300
C524        C  0.99191430  0.17020515  0.52050245    -0.29100
C525        C  0.02714684  0.36007473  0.51683353    -0.03400
C526        C  0.04726050  0.39062760  0.49138229    -0.40000
H527        H  0.97669642  0.29125000  0.55522578     0.12800
H528        H  0.97373570  0.22659637  0.55356539     0.12500
H529        H  0.07434748  0.27578399  0.47395016     0.11900
H530        H  0.07813180  0.34024213  0.47647630     0.12100
H531        H  0.04833505  0.20733609  0.49500333     0.14900
H532        H  0.96520354  0.16790238  0.53371714     0.13600
H533        H  0.00888295  0.36328584  0.53898521     0.11300
H534        H  0.06301662  0.38691813  0.46721224     0.13300
C535        C  0.04080314  0.70255657  0.45659764     0.19400
C536        C  0.00899084  0.70553592  0.44016836    -0.18700
C537        C  0.00876242  0.74175934  0.44043954    -0.10900
C538        C  0.04065713  0.77606107  0.45697223     0.21700
C539        C  0.07301476  0.77341148  0.47233616    -0.20300
C540        C  0.07313469  0.73718509  0.47229849    -0.11100
C541        C  0.04164211  0.81515945  0.45849966    -0.15300
C542        C  0.00844019  0.81863166  0.45988032    -0.29100
C543        C  0.03951623  0.66320637  0.45596208    -0.03400
C544        C  0.06149098  0.65356671  0.47931837    -0.40000
H545        H  0.98401198  0.67960907  0.42727835     0.12800
H546        H  0.98385099  0.74286417  0.42727895     0.12500
H547        H  0.09822519  0.79946933  0.48480484     0.11900
H548        H  0.09892572  0.73679338  0.48410498     0.12100
H549        H  0.07079411  0.84188442  0.46202433     0.14900
H550        H  0.97890571  0.79201875  0.45948628     0.13600
H551        H  0.01828991  0.64049511  0.43665470     0.11300
H552        H  0.08016460  0.67430167  0.50127804     0.13300
C553        C  0.03247402  0.51706556  0.77627720     0.19400
C554        C  0.06764181  0.54151487  0.75478464    -0.18700
C555        C  0.06902766  0.53694096  0.71481221    -0.10900
C556        C  0.03494635  0.50798923  0.69523603     0.21700
C557        C  0.99981993  0.48347632  0.71670444    -0.20300
C558        C  0.99839111  0.48811463  0.75664977    -0.11100
C559        C  0.03492828  0.50225827  0.65269654    -0.15300
C560        C  0.05887966  0.53167253  0.62769323    -0.29100
C561        C  0.03244391  0.52308416  0.81881538    -0.03400
C562        C  0.00681355  0.49468755  0.84385826    -0.40000
H563        H  0.09436062  0.56400245  0.76907089     0.12800
H564        H  0.09698334  0.55574620  0.69950951     0.12500
H565        H  0.97310467  0.46102152  0.70238541     0.11900
H566        H  0.97033678  0.46937288  0.77179161     0.12100
H567        H  0.01257430  0.47358236  0.64120115     0.14900
H568        H  0.07860457  0.56160239  0.63828630     0.13600
H569        H  0.05573623  0.55130424  0.83029843     0.11300
H570        H  0.98552599  0.46517667  0.83339843     0.13300
C571        C  0.03121597  0.52101621  0.27657402     0.19400
C572        C  0.00332768  0.52697405  0.25566343    -0.18700
C573        C  0.00134353  0.52394625  0.21535372    -0.10900
C574        C  0.02756784  0.51510485  0.19476346     0.21700
C575        C  0.05559233  0.50936505  0.21561733    -0.20300
C576        C  0.05765541  0.51249143  0.25589951    -0.11100
C577        C  0.02606706  0.51032690  0.15193833    -0.15300
C578        C  0.00789169  0.52368114  0.12763436    -0.29100
C579        C  0.03176823  0.52451697  0.31957529    -0.03400
C580        C  0.05259594  0.51399182  0.34357854    -0.40000
H581        H  0.98259858  0.53363147  0.27064671     0.12800
H582        H  0.97868196  0.52779235  0.20075624     0.12500
H583        H  0.07621199  0.50256775  0.20061556     0.11900
H584        H  0.08027155  0.50848162  0.27032742     0.12100
H585        H  0.04179268  0.49614298  0.13955360     0.14900
H586        H  0.99467466  0.54076986  0.13859951     0.13600
H587        H  0.01325233  0.53546471  0.33233535     0.11300
H588        H  0.06896705  0.50011653  0.33233056     0.13300
C589        C  0.97414394  0.23598802  0.03262927     0.19400
C590        C  0.94428284  0.24393699  0.01940178    -0.18700
C591        C  0.95120852  0.28315836  0.01722504    -0.10900
C592        C  0.98835782  0.31563499  0.02830782     0.21700
C593        C  0.01769749  0.30767636  0.04296589    -0.20300
C594        C  0.01081887  0.26843053  0.04508714    -0.11100
C595        C  0.99717704  0.35790776  0.02570011    -0.15300
C596        C  0.97895782  0.37046672  0.00059244    -0.29100
C597        C  0.96584524  0.19370526  0.03217493    -0.03400
C598        C  0.99466571  0.18355415  0.03401869    -0.40000
H599        H  0.91553506  0.21968114  0.01017126     0.12800
H600        H  0.92722000  0.28778471  0.00715111     0.12500
H601        H  0.04631582  0.33201052  0.05238708     0.11900
H602        H  0.03433478  0.26393452  0.05668931     0.12100
H603        H  0.02092337  0.37995602  0.04365841     0.14900
H604        H  0.95783888  0.34969365  0.97995842     0.13600
H605        H  0.93514928  0.17026106  0.02686899     0.11300
H606        H  0.02586706  0.20655895  0.03688215     0.13300
C607        C  0.00204078  0.69327684  0.98313293     0.19400
C608        C  0.96925767  0.69685943  0.99596114    -0.18700
C609        C  0.96981174  0.73337138  0.99274605    -0.10900
C610        C  0.00345260  0.76737038  0.97669110     0.21700
C611        C  0.03611068  0.76367194  0.96377809    -0.20300
C612        C  0.03550077  0.72718902  0.96686677    -0.11100
C613        C  0.00740269  0.80788752  0.97611828    -0.15300
C614        C  0.97624875  0.81454788  0.97914861    -0.29100
C615        C  0.00099420  0.65440954  0.98891467    -0.03400
C616        C  0.02466974  0.64385224  0.96948166    -0.40000
H617        H  0.94327008  0.67139687  0.00901339     0.12800
H618        H  0.94445225  0.73500548  0.00415495     0.12500
H619        H  0.06265059  0.78941605  0.95185487     0.11900
H620        H  0.06189762  0.72623942  0.95759880     0.12100
H621        H  0.03765689  0.83347844  0.97426002     0.14900
H622        H  0.94569123  0.78955885  0.97996789     0.13600
H623        H  0.97893442  0.63292999  0.00922649     0.11300
H624        H  0.04439955  0.66297160  0.94653698     0.13300
loop_ 
_geom_bond_atom_site_label_1 
_geom_bond_atom_site_label_2 
_geom_bond_distance 
_geom_bond_site_symmetry_2 
_ccdc_geom_bond_type 
N1            C6   1.356   1_455  A
N1            C5   1.355   1_455  A
N1           H33   1.040       .  S
N2            C9   1.355   1_455  A
N2           C10   1.355       .  A
N3            C8   1.355       .  A
N3            C7   1.356       .  A
N3           H34   1.040       .  S
N4           C11   1.354       .  A
N4           C12   1.354       .  A
C5           C13   1.387       .  A
C5           C21   1.419   1_554  A
C6           C22   1.419   1_655  A
C6           C14   1.387       .  A
C7           C15   1.387   1_455  A
C7           C24   1.418       .  A
C8           C23   1.416       .  A
C8           C16   1.387       .  A
C9           C21   1.417       .  A
C9           C17   1.386   1_655  A
C10          C24   1.417       .  A
C10          C18   1.386       .  A
C11          C19   1.386       .  A
C11          C22   1.415       .  A
C12          C20   1.386       .  A
C12          C23   1.416   1_554  A
C13          C14   1.376       .  A
C13          H25   1.082       .  S
C14          H26   1.082       .  S
C15          C16   1.374   1_655  A
C15          H27   1.082       .  S
C16          H28   1.082   1_455  S
C17          C18   1.371       .  A
C17          H29   1.082       .  S
C18          H30   1.082       .  S
C19          C20   1.373       .  A
C19          H31   1.082       .  S
C20          H32   1.082       .  S
C21         C596   1.495   1_556  S
C22         C578   1.497       .  S
C23         C616   1.493       .  S
C24         C562   1.498       .  S
N35          C40   1.357       .  A
N35          C39   1.357       .  A
N35          H67   1.038       .  S
N36          C43   1.353       .  A
N36          C44   1.354       .  A
N37          C42   1.356       .  A
N37          C41   1.357       .  A
N37          H68   1.039       .  S
N38          C45   1.355       .  A
N38          C46   1.354       .  A
C39          C47   1.387       .  A
C39          C55   1.420       .  A
C40          C56   1.421       .  A
C40          C48   1.387       .  A
C41          C49   1.387       .  A
C41          C58   1.418       .  A
C42          C57   1.417       .  A
C42          C50   1.387       .  A
C43          C55   1.418       .  A
C43          C51   1.387       .  A
C44          C58   1.417       .  A
C44          C52   1.386       .  A
C45          C53   1.386       .  A
C45          C56   1.419       .  A
C46          C54   1.385       .  A
C46          C57   1.417       .  A
C47          C48   1.375       .  A
C47          H59   1.082       .  S
C48          H60   1.082       .  S
C49          C50   1.374       .  A
C49          H61   1.082       .  S
C50          H62   1.082       .  S
C51          C52   1.374       .  A
C51          H63   1.082       .  S
C52          H64   1.082       .  S
C53          C54   1.375       .  A
C53          H65   1.082       .  S
C54          H66   1.082       .  S
C55         C580   1.498       .  S
C56         C526   1.501       .  S
C57         C560   1.496       .  S
C58         C544   1.497       .  S
O69         Mg71   2.141       .  S
O69         Mg77   2.156   1_654  S
O69         C104   1.235   1_655  S
C70         H109   1.081       .  S
C70          O83   1.238       .  S
C70         O107   1.272       .  A
Mg71        O100   2.153   1_554  S
Mg71        O115   2.322   1_554  S
Mg71        O111   2.273       .  S
Mg71         O82   2.304       .  S
O72        Mg114   2.149   1_554  S
O72         Mg97   2.146       .  S
O72          C93   1.235       .  S
O73         C104   1.269       .  A
O73         Mg97   2.293   1_565  S
C74         C508   1.480       .  S
C74          O76   1.272   1_545  A
C74          O88   1.277       .  A
O75         C103   1.271       .  A
O75         Mg77   2.304   1_655  S
O76        Mg108   2.275       .  S
Mg77         O83   2.159   1_565  S
Mg77         O91   2.288       .  S
Mg77         O79   2.337   1_556  S
C78         C598   1.483       .  S
C78         O116   1.277       .  A
C78          O84   1.276   1_655  A
O79          C86   1.279       .  A
H80          C93   1.081       .  S
C81         H106   1.081       .  S
C81          O95   1.236       .  S
C81          O96   1.270       .  A
O82         C105   1.272       .  A
O83         Mg97   2.164   1_556  S
O84        Mg114   2.309   1_554  S
C85         C452   1.479       .  S
C85          O98   1.273       .  A
C85          O90   1.272   1_556  A
C86         C490   1.481       .  S
C86         O113   1.270   1_565  A
Mg87         O94   2.160   1_545  S
Mg87         O95   2.162   1_554  S
Mg87         O88   2.314   1_554  S
Mg87         O89   2.300       .  S
Mg87        O116   2.303       .  S
O89          C93   1.269   1_655  A
O90         Mg97   2.292       .  S
O91         C110   1.277   1_455  A
O92         C112   1.274       .  A
O92        Mg108   2.305   1_554  S
O94        Mg108   2.170   1_554  S
O94         C105   1.238       .  S
O95        Mg114   2.144   1_655  S
O96        Mg108   2.293   1_545  S
Mg97        O113   2.251       .  S
O98        Mg114   2.280       .  S
H99         C104   1.081   1_655  S
O100       Mg108   2.158       .  S
O100        C103   1.236       .  S
H101        C103   1.081       .  S
H102        C105   1.081       .  S
O107       Mg114   2.304       .  S
C110        C614   1.484       .  S
C110        O115   1.277       .  A
O111        C112   1.273       .  A
C112        C472   1.479       .  S
O117       Mg119   2.142   1_455  S
O117       Mg125   2.150       .  S
O117        C152   1.237       .  S
C118        H157   1.081       .  S
C118        O131   1.236       .  S
C118        O155   1.271       .  A
Mg119       O148   2.150       .  S
Mg119       O163   2.320       .  S
Mg119       O159   2.261       .  S
Mg119       O130   2.298       .  S
O120       Mg162   2.164       .  S
O120       Mg145   2.162       .  S
O120        C141   1.236       .  S
O121        C152   1.271       .  A
O121       Mg145   2.305   1_565  S
C122        C436   1.474       .  S
C122        O124   1.272       .  A
C122        O136   1.277   1_565  A
O123        C151   1.269       .  A
O123       Mg125   2.295   1_655  S
O124       Mg156   2.260       .  S
Mg125       O131   2.162   1_565  S
Mg125       O139   2.282       .  S
Mg125       O127   2.286       .  S
C126        C524   1.494       .  S
C126        O164   1.276       .  A
C126        O132   1.279   1_655  A
O127        C134   1.272   1_565  A
H128        C141   1.081       .  S
C129        H154   1.081       .  S
C129        O143   1.236       .  S
C129        O144   1.270   1_545  A
O130        C153   1.270       .  A
O131       Mg145   2.159       .  S
O132       Mg162   2.335       .  S
C133        C382   1.480       .  S
C133        O146   1.272       .  A
C133        O138   1.278       .  A
C134        C418   1.477       .  S
C134        O161   1.275       .  A
Mg135       O142   2.164   1_545  S
Mg135       O143   2.157       .  S
Mg135       O136   2.306       .  S
Mg135       O137   2.300   1_655  S
Mg135       O164   2.303       .  S
O137        C141   1.271       .  A
O138       Mg145   2.318       .  S
O139        C158   1.274       .  A
O140        C160   1.279       .  A
O140       Mg156   2.334       .  S
O142       Mg156   2.173       .  S
O142        C153   1.237       .  S
O143       Mg162   2.140   1_655  S
O144       Mg156   2.294       .  S
Mg145       O161   2.293       .  S
O146       Mg162   2.264       .  S
H147        C152   1.081       .  S
O148       Mg156   2.140       .  S
O148        C151   1.235       .  S
H149        C151   1.081       .  S
H150        C153   1.081       .  S
O155       Mg162   2.304       .  S
C158        C542   1.483       .  S
C158        O163   1.276   1_455  A
O159        C160   1.271       .  A
C160        C400   1.482       .  S
N165        C170   1.356   1_565  A
N165        C169   1.357       .  A
N165        H197   1.036       .  S
N166        C173   1.353       .  A
N166        C174   1.353       .  A
N167        C172   1.356       .  A
N167        C171   1.356       .  A
N167        H198   1.037       .  S
N168        C175   1.355       .  A
N168        C176   1.353       .  A
C169        C177   1.388   1_565  A
C169        C185   1.421       .  A
C170        C186   1.420       .  A
C170        C178   1.387       .  A
C171        C179   1.388       .  A
C171        C188   1.420   1_556  A
C172        C187   1.417       .  A
C172        C180   1.386   1_565  A
C173        C185   1.414       .  A
C173        C181   1.386       .  A
C174        C188   1.418       .  A
C174        C182   1.387       .  A
C175        C183   1.388       .  A
C175        C186   1.421   1_566  A
C176        C184   1.384       .  A
C176        C187   1.414       .  A
C177        C178   1.376       .  A
C177        H189   1.081       .  S
C178        H190   1.082       .  S
C179        C180   1.377   1_565  A
C179        H191   1.082       .  S
C180        H192   1.082       .  S
C181        C182   1.372       .  A
C181        H193   1.082       .  S
C182        H194   1.082       .  S
C183        C184   1.374       .  A
C183        H195   1.081       .  S
C184        H196   1.082       .  S
C185        C364   1.493       .  S
C186        C506   1.500       .  S
C187        C344   1.490   1_565  S
C188        C488   1.498       .  S
N199        C204   1.354   1_545  A
N199        C203   1.356   1_545  A
N199        H231   1.041       .  S
N200        C207   1.354       .  A
N200        C208   1.353       .  A
N201        C206   1.357   1_545  A
N201        C205   1.353       .  A
N201        H232   1.040       .  S
N202        C209   1.353       .  A
N202        C210   1.354       .  A
C203        C211   1.386       .  A
C203        C219   1.416   1_565  A
C204        C220   1.419       .  A
C204        C212   1.388       .  A
C205        C213   1.387   1_545  A
C205        C222   1.416       .  A
C206        C221   1.420       .  A
C206        C214   1.387       .  A
C207        C219   1.415       .  A
C207        C215   1.385       .  A
C208        C222   1.416       .  A
C208        C216   1.387       .  A
C209        C217   1.389   1_565  A
C209        C220   1.417       .  A
C210        C218   1.385   1_565  A
C210        C221   1.413       .  A
C211        C212   1.377       .  A
C211        H223   1.082       .  S
C212        H224   1.082       .  S
C213        C214   1.377       .  A
C213        H225   1.082       .  S
C214        H226   1.082       .  S
C215        C216   1.373       .  A
C215        H227   1.082       .  S
C216        H228   1.082       .  S
C217        C218   1.372       .  A
C217        H229   1.082       .  S
C218        H230   1.082       .  S
C219        C362   1.498       .  S
C220        C434   1.495       .  S
C221        C346   1.499       .  S
C222        C416   1.493       .  S
N233        C238   1.355       .  A
N233        C237   1.355       .  A
N233        H265   1.037       .  S
N234        C241   1.354       .  A
N234        C242   1.354       .  A
N235        C240   1.356       .  A
N235        C239   1.356       .  A
N235        H266   1.037       .  S
N236        C243   1.353       .  A
N236        C244   1.353       .  A
C237        C245   1.387       .  A
C237        C253   1.416       .  A
C238        C254   1.416   1_554  A
C238        C246   1.387       .  A
C239        C247   1.388       .  A
C239        C256   1.421   1_556  A
C240        C255   1.421       .  A
C240        C248   1.388       .  A
C241        C253   1.417       .  A
C241        C249   1.385       .  A
C242        C256   1.420       .  A
C242        C250   1.388       .  A
C243        C251   1.385       .  A
C243        C254   1.416       .  A
C244        C252   1.389       .  A
C244        C255   1.420       .  A
C245        C246   1.372       .  A
C245        H257   1.082       .  S
C246        H258   1.082       .  S
C247        C248   1.376       .  A
C247        H259   1.082       .  S
C248        H260   1.082       .  S
C249        C250   1.369       .  A
C249        H261   1.082       .  S
C250        H262   1.081       .  S
C251        C252   1.371       .  A
C251        H263   1.082       .  S
C252        H264   1.081       .  S
C253        C326   1.493       .  S
C254        C454   1.490       .  S
C255        C310   1.493       .  S
C256        C470   1.494       .  S
N267        C272   1.356       .  A
N267        C271   1.355       .  A
N267        H299   1.038       .  S
N268        C275   1.353       .  A
N268        C276   1.354       .  A
N269        C274   1.355       .  A
N269        C273   1.356       .  A
N269        H300   1.038       .  S
N270        C277   1.354       .  A
N270        C278   1.353       .  A
C271        C279   1.388       .  A
C271        C287   1.419       .  A
C272        C288   1.418       .  A
C272        C280   1.386       .  A
C273        C281   1.386       .  A
C273        C290   1.417       .  A
C274        C289   1.417       .  A
C274        C282   1.388       .  A
C275        C287   1.419       .  A
C275        C283   1.389       .  A
C276        C290   1.414       .  A
C276        C284   1.385       .  A
C277        C285   1.386       .  A
C277        C288   1.417       .  A
C278        C286   1.386       .  A
C278        C289   1.416       .  A
C279        C280   1.375       .  A
C279        H291   1.082       .  S
C280        H292   1.082       .  S
C281        C282   1.375       .  A
C281        H293   1.082       .  S
C282        H294   1.082       .  S
C283        C284   1.370       .  A
C283        H295   1.081       .  S
C284        H296   1.082       .  S
C285        C286   1.372       .  A
C285        H297   1.082       .  S
C286        H298   1.082       .  S
C287        C308   1.492       .  S
C288        C380   1.498       .  S
C289        C328   1.493       .  S
C290        C398   1.493       .  S
C301        C302   1.405       .  A
C301        C306   1.408       .  A
C301        C309   1.493       .  S
C302        C303   1.400       .  A
C302        H311   1.083       .  S
C303        C304   1.409       .  A
C303        H312   1.080       .  S
C304        C305   1.405       .  A
C304        C307   1.493       .  S
C305        C306   1.400       .  A
C305        H313   1.083       .  S
C306        H314   1.080       .  S
C307        H315   1.088       .  S
C307        C308   1.348       .  D
C308        H316   1.082       .  S
C309        H317   1.088       .  S
C309        C310   1.348       .  D
C310        H318   1.082       .  S
C319        C320   1.404       .  A
C319        C324   1.407       .  A
C319        C327   1.489       .  S
C320        C321   1.400       .  A
C320        H329   1.083       .  S
C321        C322   1.409       .  A
C321        H330   1.080       .  S
C322        C323   1.404       .  A
C322        C325   1.491       .  S
C323        C324   1.398       .  A
C323        H331   1.083       .  S
C324        H332   1.081       .  S
C325        H333   1.087       .  S
C325        C326   1.348       .  D
C326        H334   1.083       .  S
C327        H335   1.087       .  S
C327        C328   1.348       .  D
C328        H336   1.084       .  S
C337        C338   1.405   1_565  A
C337        C342   1.410       .  A
C337        C345   1.497   1_565  S
C338        C339   1.401       .  A
C338        H347   1.083       .  S
C339        C340   1.408   1_545  A
C339        H348   1.081       .  S
C340        C341   1.405       .  A
C340        C343   1.495       .  S
C341        C342   1.403       .  A
C341        H349   1.083       .  S
C342        H350   1.081       .  S
C343        H351   1.087       .  S
C343        C344   1.347   1_565  D
C344        H352   1.084       .  S
C345        H353   1.087       .  S
C345        C346   1.349   1_545  D
C346        H354   1.084       .  S
C355        C356   1.404       .  A
C355        C360   1.408   1_545  A
C355        C363   1.490       .  S
C356        C357   1.401       .  A
C356        H365   1.083       .  S
C357        C358   1.407       .  A
C357        H366   1.082       .  S
C358        C359   1.405   1_545  A
C358        C361   1.492   1_545  S
C359        C360   1.402       .  A
C359        H367   1.083       .  S
C360        H368   1.082       .  S
C361        H369   1.087       .  S
C361        C362   1.349   1_565  D
C362        H370   1.086       .  S
C363        H371   1.087       .  S
C363        C364   1.347   1_545  D
C364        H372   1.085       .  S
C373        C374   1.404       .  A
C373        C378   1.408       .  A
C373        C381   1.491       .  S
C374        C375   1.400       .  A
C374        H383   1.084       .  S
C375        C376   1.409       .  A
C375        H384   1.080       .  S
C376        C377   1.406       .  A
C376        C379   1.495       .  S
C377        C378   1.401       .  A
C377        H385   1.083       .  S
C378        H386   1.081       .  S
C379        H387   1.087       .  S
C379        C380   1.350       .  D
C380        H388   1.083       .  S
C381        H389   1.087       .  S
C381        C382   1.348       .  D
C382        H390   1.084       .  S
C391        C392   1.405       .  A
C391        C396   1.410       .  A
C391        C399   1.494       .  S
C392        C393   1.402       .  A
C392        H401   1.083       .  S
C393        C394   1.408       .  A
C393        H402   1.082       .  S
C394        C395   1.404       .  A
C394        C397   1.492       .  S
C395        C396   1.401       .  A
C395        H403   1.083       .  S
C396        H404   1.081       .  S
C397        H405   1.087       .  S
C397        C398   1.347       .  D
C398        H406   1.085       .  S
C399        H407   1.087       .  S
C399        C400   1.348       .  D
C400        H408   1.085       .  S
C409        C410   1.403       .  A
C409        C414   1.409   1_545  A
C409        C417   1.489       .  S
C410        C411   1.401       .  A
C410        H419   1.083       .  S
C411        C412   1.408       .  A
C411        H420   1.082       .  S
C412        C413   1.402   1_545  A
C412        C415   1.487       .  S
C413        C414   1.398       .  A
C413        H421   1.083       .  S
C414        H422   1.082       .  S
C415        H423   1.087   1_545  S
C415        C416   1.346       .  D
C416        H424   1.086       .  S
C417        H425   1.087       .  S
C417        C418   1.345       .  D
C418        H426   1.086   1_545  S
C427        C428   1.402       .  A
C427        C432   1.406   1_545  A
C427        C435   1.481       .  S
C428        C429   1.397       .  A
C428        H437   1.083       .  S
C429        C430   1.405       .  A
C429        H438   1.083       .  S
C430        C431   1.402   1_545  A
C430        C433   1.479       .  S
C431        C432   1.400       .  A
C431        H439   1.083       .  S
C432        H440   1.083       .  S
C433        H441   1.086       .  S
C433        C434   1.345   1_545  D
C434        H442   1.086       .  S
C435        H443   1.087       .  S
C435        C436   1.343   1_545  D
C436        H444   1.086       .  S
C445        C446   1.404       .  A
C445        C450   1.408       .  A
C445        C453   1.491       .  S
C446        C447   1.400       .  A
C446        H455   1.083       .  S
C447        C448   1.409       .  A
C447        H456   1.081       .  S
C448        C449   1.404       .  A
C448        C451   1.492       .  S
C449        C450   1.399       .  A
C449        H457   1.083       .  S
C450        H458   1.081       .  S
C451        H459   1.087       .  S
C451        C452   1.347       .  D
C452        H460   1.084       .  S
C453        H461   1.087       .  S
C453        C454   1.347       .  D
C454        H462   1.084   1_556  S
C463        C464   1.405       .  A
C463        C468   1.409       .  A
C463        C471   1.493       .  S
C464        C465   1.400       .  A
C464        H473   1.083       .  S
C465        C466   1.407       .  A
C465        H474   1.080       .  S
C466        C467   1.404       .  A
C466        C469   1.490       .  S
C467        C468   1.399       .  A
C467        H475   1.083       .  S
C468        H476   1.080       .  S
C469        H477   1.088       .  S
C469        C470   1.348       .  D
C470        H478   1.083       .  S
C471        H479   1.087       .  S
C471        C472   1.348       .  D
C472        H480   1.083       .  S
C481        C482   1.404       .  A
C481        C486   1.410       .  A
C481        C489   1.495       .  S
C482        C483   1.401       .  A
C482        H491   1.083   1_554  S
C483        C484   1.408       .  A
C483        H492   1.081   1_554  S
C484        C485   1.405       .  A
C484        C487   1.493       .  S
C485        C486   1.400       .  A
C485        H493   1.084   1_565  S
C486        H494   1.081   1_565  S
C487        H495   1.087       .  S
C487        C488   1.350       .  D
C488        H496   1.084   1_554  S
C489        H497   1.087       .  S
C489        C490   1.347       .  D
C490        H498   1.084   1_565  S
C499        C500   1.404   1_556  A
C499        C504   1.406       .  A
C499        C507   1.487       .  S
C500        C501   1.400       .  A
C500        H509   1.083       .  S
C501        C502   1.406   1_554  A
C501        H510   1.082       .  S
C502        C503   1.406       .  A
C502        C505   1.490       .  S
C503        C504   1.403       .  A
C503        H511   1.083       .  S
C504        H512   1.083       .  S
C505        H513   1.086       .  S
C505        C506   1.349   1_556  D
C506        H514   1.086   1_545  S
C507        H515   1.087   1_556  S
C507        C508   1.347       .  D
C508        H516   1.086   1_545  S
C517        C518   1.408   1_455  A
C517        C522   1.409       .  A
C517        C525   1.502       .  S
C518        C519   1.407       .  A
C518        H527   1.083       .  S
C519        C520   1.410   1_655  A
C519        H528   1.081       .  S
C520        C521   1.406       .  A
C520        C523   1.502       .  S
C521        C522   1.401       .  A
C521        H529   1.083       .  S
C522        H530   1.080       .  S
C523        H531   1.087       .  S
C523        C524   1.353   1_455  D
C524        H532   1.084       .  S
C525        H533   1.087       .  S
C525        C526   1.352       .  D
C526        H534   1.083       .  S
C535        C536   1.406       .  A
C535        C540   1.409       .  A
C535        C543   1.495       .  S
C536        C537   1.403       .  A
C536        H545   1.083   1_455  S
C537        C538   1.407       .  A
C537        H546   1.082   1_455  S
C538        C539   1.404       .  A
C538        C541   1.492       .  S
C539        C540   1.400       .  A
C539        H547   1.083       .  S
C540        H548   1.081       .  S
C541        H549   1.087       .  S
C541        C542   1.349       .  D
C542        H550   1.085   1_455  S
C543        H551   1.087       .  S
C543        C544   1.349       .  D
C544        H552   1.084       .  S
C553        C554   1.405       .  A
C553        C558   1.409   1_455  A
C553        C561   1.494       .  S
C554        C555   1.402       .  A
C554        H563   1.083       .  S
C555        C556   1.408       .  A
C555        H564   1.082       .  S
C556        C557   1.404   1_455  A
C556        C559   1.492       .  S
C557        C558   1.401       .  A
C557        H565   1.083       .  S
C558        H566   1.081       .  S
C559        H567   1.087       .  S
C559        C560   1.348       .  D
C560        H568   1.085       .  S
C561        H569   1.087       .  S
C561        C562   1.349       .  D
C562        H570   1.085   1_455  S
C571        C572   1.406       .  A
C571        C576   1.409       .  A
C571        C579   1.496       .  S
C572        C573   1.402       .  A
C572        H581   1.083   1_455  S
C573        C574   1.408       .  A
C573        H582   1.081   1_455  S
C574        C575   1.405       .  A
C574        C577   1.495       .  S
C575        C576   1.401       .  A
C575        H583   1.083       .  S
C576        H584   1.080       .  S
C577        H585   1.087       .  S
C577        C578   1.349       .  D
C578        H586   1.084   1_455  S
C579        H587   1.087       .  S
C579        C580   1.350       .  D
C580        H588   1.083       .  S
C589        C590   1.405       .  A
C589        C594   1.411   1_655  A
C589        C597   1.498       .  S
C590        C591   1.401       .  A
C590        H599   1.083       .  S
C591        C592   1.407       .  A
C591        H600   1.082       .  S
C592        C593   1.404   1_655  A
C592        C595   1.493       .  S
C593        C594   1.402       .  A
C593        H601   1.083       .  S
C594        H602   1.080       .  S
C595        H603   1.087   1_655  S
C595        C596   1.349       .  D
C596        H604   1.085   1_554  S
C597        H605   1.087       .  S
C597        C598   1.348       .  D
C598        H606   1.083   1_655  S
C607        C608   1.405   1_455  A
C607        C612   1.408       .  A
C607        C615   1.492       .  S
C608        C609   1.402       .  A
C608        H617   1.084   1_556  S
C609        C610   1.409   1_655  A
C609        H618   1.081   1_556  S
C610        C611   1.404       .  A
C610        C613   1.494       .  S
C611        C612   1.400       .  A
C611        H619   1.083       .  S
C612        H620   1.081       .  S
C613        H621   1.087       .  S
C613        C614   1.348   1_455  D
C614        H622   1.085       .  S
C615        H623   1.087   1_456  S
C615        C616   1.348       .  D
C616        H624   1.084       .  S
