geometry optimzed in LAMMPS
_audit_creation_date              2020-12-01 
_audit_creation_method            'lammps2cif' 
_symmetry_space_group_name_H-M    'P1' 
_symmetry_Int_Tables_number       1 
_symmetry_cell_setting            triclinic 
loop_ 
_symmetry_equiv_pos_as_xyz 
  x,y,z 
_cell_length_a                    36.02504303 
_cell_length_b                    36.120469108472705 
_cell_length_c                    26.593817218637607 
_cell_angle_alpha                 90.33258682164363 
_cell_angle_beta                  89.25684874329916 
_cell_angle_gamma                 120.32381140443742 
loop_ 
_atom_site_label 
_atom_site_type_symbol 
_atom_site_fract_x 
_atom_site_fract_y 
_atom_site_fract_z 
_atom_site_charge 
C1          C  0.32462207  0.17490965  0.04719140     0.30600
C2          C  0.33665992  0.18122566  0.94456925     0.30600
C3          C  0.35066283  0.15501947  0.02424409    -0.05600
C4          C  0.28323287  0.15331976  0.01438702    -0.06400
C5          C  0.34873885  0.22117173  0.02484604    -0.06200
C6          C  0.35675943  0.15906700  0.97210563    -0.05600
C7          C  0.28994674  0.15690647  0.96231042    -0.06400
C8          C  0.35466219  0.22337648  0.97265782    -0.06200
C9          C  0.37983155  0.14013751  0.95732726    -0.31600
N10         N  0.38782283  0.12392405  0.99851574     0.14900
C11         C  0.37035859  0.13252082  0.03971091    -0.31600
H12         H  0.37147754  0.12269192  0.07775803     0.16800
C13         C  0.25059738  0.13817579  0.93911954    -0.30600
N14         N  0.21970163  0.12268153  0.97530515     0.13600
C15         C  0.23894277  0.13157541  0.02121845    -0.30600
C16         C  0.37726252  0.26546733  0.95832844    -0.30900
N17         N  0.38476917  0.28972820  0.99963374     0.14100
H18         H  0.38777085  0.27799021  0.92071384     0.16700
C19         C  0.36761382  0.26355312  0.04069310    -0.30900
H20         H  0.36968355  0.27452482  0.07904782     0.16700
H21         H  0.22186779  0.12347552  0.05691557     0.16700
H22         H  0.38955189  0.13755595  0.91940084     0.16800
H23         H  0.24484179  0.13631157  0.89909246     0.16700
C24         C  0.34028577  0.16062829  0.45486553     0.30600
C25         C  0.33450702  0.15627670  0.55818062     0.30600
C26         C  0.36216284  0.13851880  0.48173995    -0.05600
C27         C  0.35996188  0.20409291  0.48345276    -0.06400
C28         C  0.29409844  0.13602795  0.47798496    -0.06200
C29         C  0.35908089  0.13679764  0.53409467    -0.05600
C30         C  0.35618271  0.20124165  0.53597860    -0.06400
C31         C  0.29205234  0.13389196  0.53059382    -0.06200
C32         C  0.37895468  0.11560553  0.55171553    -0.31600
N33         N  0.39393976  0.10387135  0.51164217     0.14900
C34         C  0.38403475  0.11740794  0.46877637    -0.31600
H35         H  0.39214790  0.11213448  0.43112332     0.16800
C36         C  0.37415067  0.24189267  0.55549008    -0.30600
N37         N  0.38981813  0.26977869  0.51670056     0.13600
C38         C  0.38164376  0.24745664  0.47267343    -0.30600
C39         C  0.24985486  0.11233414  0.54561460    -0.30900
N40         N  0.22560399  0.10189413  0.50416965     0.14100
H41         H  0.23734440  0.10538799  0.58373556     0.16700
C42         C  0.25171742  0.11595393  0.46253699    -0.30900
H43         H  0.24064127  0.11184201  0.42417364     0.16700
H44         H  0.39065332  0.26179512  0.43564389     0.16700
H45         H  0.38192279  0.10875578  0.59054064     0.16800
H46         H  0.37643144  0.25066338  0.59478816     0.16700
C47         C  0.16134841  0.34579235  0.05599670     0.30600
C48         C  0.17408274  0.35092781  0.95360610     0.30600
C49         C  0.14188408  0.36804331  0.02755107    -0.05600
C50         C  0.20815712  0.36983483  0.03868926    -0.06400
C51         C  0.14304463  0.30321363  0.02865444    -0.06200
C52         C  0.14779806  0.37108250  0.97536338    -0.05600
C53         C  0.21519216  0.37289591  0.98673151    -0.06400
C54         C  0.14980981  0.30491874  0.97664380    -0.06200
C55         C  0.12788127  0.39324508  0.95909365    -0.31600
N56         N  0.11063666  0.40264175  0.99995496     0.14900
C57         C  0.11909889  0.38743193  0.04161177    -0.31600
H58         H  0.10967625  0.39093128  0.07933876     0.16800
C59         C  0.25948331  0.39463788  0.98024830    -0.30600
N60         N  0.27842915  0.40416948  0.02630999     0.13600
C61         C  0.24736078  0.38910238  0.06225751    -0.30600
C62         C  0.13103294  0.26243815  0.96136476    -0.30900
N63         N  0.11301067  0.23656405  0.00247053     0.14100
H64         H  0.12954044  0.25115975  0.92324156     0.16700
C65         C  0.11986086  0.26122602  0.04340523    -0.30900
H66         H  0.10872771  0.24928486  0.08110338     0.16700
H67         H  0.25292322  0.39154835  0.10234789     0.16700
H68         H  0.12650104  0.40230421  0.92074377     0.16800
H69         H  0.27677836  0.40228614  0.94470907     0.16700
C70         C  0.17116614  0.32749368  0.44245074     0.30600
C71         C  0.16530908  0.32242966  0.54559146     0.30600
C72         C  0.14812985  0.34843019  0.46707898    -0.05600
C73         C  0.14782215  0.28240940  0.46391718    -0.06400
C74         C  0.21360157  0.34815550  0.46991461    -0.06200
C75         C  0.14484099  0.34632596  0.51961593    -0.05600
C76         C  0.14407461  0.27917640  0.51618697    -0.06400
C77         C  0.21157035  0.34554315  0.52244834    -0.06200
C78         C  0.12236992  0.36683972  0.53258723    -0.31600
N79         N  0.11249280  0.38044365  0.48961519     0.14900
C80         C  0.12807549  0.36937475  0.44956739    -0.31600
H81         H  0.12478438  0.37593602  0.41073158     0.16800
C82         C  0.12239183  0.23561617  0.52643939    -0.30600
N83         N  0.11407071  0.21364311  0.48218440     0.13600
C84         C  0.12964038  0.24190771  0.44380769    -0.30600
C85         C  0.25402481  0.36567890  0.53777742    -0.30900
N86         N  0.28010149  0.38032697  0.49610183     0.14100
H87         H  0.26515350  0.37008081  0.57614296     0.16700
C88         C  0.25575543  0.36998854  0.45478467    -0.30900
H89         H  0.26820311  0.37784768  0.41669400     0.16700
H90         H  0.12783863  0.23352414  0.40440835     0.16700
H91         H  0.11341684  0.37113377  0.57025140     0.16800
H92         H  0.11394146  0.22086228  0.56327977     0.16700
O93         O  0.45007968  0.03594387  0.04178816    -0.87700
C94         C  0.42255161  0.44455286  0.93388814     0.88300
Mg95       Mg  0.49893700  0.10239197  0.03207722     1.58100
O96         O  0.48017506  0.44084686  0.03943759    -0.87500
O97         O  0.42805718  0.48233908  0.09372250    -0.74800
C98         C  0.17416656  0.10135739  0.96719461     0.93300
O99         O  0.45609995  0.04923824  0.92188001    -0.74600
O100        O  0.15629151  0.12350517  0.95975517    -0.82100
Mg101      Mg  0.40476891  0.50785495  0.98157615     1.58000
C102        C  0.08901741  0.42670533  0.00103870     0.93300
O103        O  0.34591625  0.46598632  0.03146743    -0.80400
H104        H  0.48549982  0.43286730  0.11277367    -0.05700
C105        C  0.05664355  0.00499672  0.91503353     0.88200
O106        O  0.04754116  0.09323197  0.07726506    -0.74900
O107        O  0.42128939  0.45806850  0.97612264    -0.87700
O108        O  0.04832836  0.40703268  0.99607112    -0.80500
C109        C  0.40932274  0.33552008  0.99864325     0.93400
C110        C  0.32385918  0.42531792  0.03470587     0.93200
Mg111      Mg  0.09257497  0.01803930  0.01888926     1.58000
O112        O  0.15224192  0.06068292  0.97049668    -0.80400
O113        O  0.04138159  0.47613044  0.07830069    -0.74600
O114        O  0.39219845  0.35653229  0.01518315    -0.80500
O115        O  0.38679604  0.05923449  0.99158953    -0.82200
O116        O  0.10536324  0.16964359  0.98670481    -0.80500
C117        C  0.00141037  0.44884972  0.07813038     0.87700
O118        O  0.07566900  0.06761615  0.02462793    -0.87600
O119        O  0.04742274  0.49027226  0.95799862    -0.87700
O120        O  0.06997123  0.04429992  0.90662457    -0.74800
Mg121      Mg  0.41276780  0.42317251  0.04551905     1.58000
O122        O  0.44749182  0.35386433  0.98081159    -0.82200
H123        H  0.44497005  0.04273511  0.11578091    -0.05900
O124        O  0.01745281  0.08528027  0.96056675    -0.87400
H125        H  0.01193385  0.09207450  0.88693105    -0.05700
H126        H  0.09463907  0.08083777  0.09603154    -0.05900
C127        C  0.49610027  0.07659548  0.92184421     0.87600
C128        C  0.44113683  0.52152696  0.08491342     0.88200
C129        C  0.07395592  0.08082041  0.06692106     0.88300
H130        H  0.05291487  0.48398860  0.88395119    -0.05900
O131        O  0.44907606  0.43237492  0.92319085    -0.74900
Mg132      Mg  0.08496253  0.10314907  0.95546091     1.58000
H133        H  0.40141084  0.44413245  0.90508538    -0.05900
C134        C  0.40913381  0.09961767  0.99717972     0.93300
O135        O  0.04985627  0.17238806  0.02012418    -0.82100
C136        C  0.08829549  0.19072914  0.00323542     0.93300
O137        O  0.34155818  0.40298851  0.04196732    -0.82100
Mg138      Mg  0.99837375  0.42370727  0.96763254     1.58200
O139        O  0.44989088  0.11917285  0.00112332    -0.80500
O140        O  0.11093740  0.46692040  0.00832247    -0.82100
O141        O  0.48174818  0.04324121  0.46325892    -0.87700
C142        C  0.06981984  0.06361757  0.57166436     0.88300
Mg143      Mg  0.41495765  0.99404353  0.46973628     1.58100
O144        O  0.07568210  0.01207917  0.46054353    -0.87500
O145        O  0.03647465  0.06700522  0.41181811    -0.74800
C146        C  0.41229593  0.31545575  0.52099921     0.93300
O147        O  0.46514925  0.03006226  0.58337520    -0.74600
O148        O  0.39170991  0.33413042  0.53396544    -0.82100
Mg149      Mg  0.00826194  0.08426161  0.52855650     1.58000
C150        C  0.08866660  0.40214139  0.48660869     0.93300
O151        O  0.05239144  0.14667037  0.48702880    -0.80400
H152        H  0.08646894  0.01158143  0.38671454    -0.05700
C153        C  0.50860011  0.42918772  0.57815751     0.88200
O154        O  0.42445178  0.44751813  0.41959406    -0.74900
O155        O  0.05782462  0.06766817  0.52995078    -0.87700
O156        O  0.10803758  0.44228574  0.49486651    -0.80500
C157        C  0.17977852  0.07865177  0.50530072     0.93400
C158        C  0.09249599  0.16801073  0.47738134     0.93200
Mg159      Mg  0.49774354  0.39947004  0.46988294     1.58000
O160        O  0.45182241  0.33608812  0.50833370    -0.80400
O161        O  0.04175344  0.45396565  0.41567319    -0.74600
O162        O  0.15981104  0.09733348  0.49111518    -0.80500
O163        O  0.45730239  0.10295781  0.52296733    -0.82200
O164        O  0.34647684  0.38628736  0.50872353    -0.80500
C165        C  0.06915907  0.49355051  0.41976682     0.87700
O166        O  0.44819127  0.41619060  0.46860931    -0.87600
O167        O  0.02372060  0.44024699  0.53546244    -0.87700
O168        O  0.46953533  0.41691524  0.58748163    -0.74800
Mg169      Mg  0.09407257  0.07922253  0.46006376     1.58000
O170        O  0.16043423  0.03988267  0.52002794    -0.82200
H171        H  0.47673457  0.05237442  0.39015701    -0.05900
O172        O  0.43057253  0.47196992  0.53848241    -0.87400
H173        H  0.42057416  0.47247297  0.61251053    -0.05700
H174        H  0.43593207  0.40064856  0.39605580    -0.05900
C175        C  0.43756321  0.99052173  0.57931350     0.87600
C176        C  0.99719964  0.05429645  0.42065954     0.88200
C177        C  0.43583417  0.42009364  0.42704991     0.88300
H178        H  0.02924149  0.43094403  0.60834738    -0.05900
O179        O  0.08078447  0.03592948  0.57943012    -0.74900
Mg180      Mg  0.41222428  0.40489143  0.53922722     1.58000
H181        H  0.06965010  0.08311504  0.60257695    -0.05900
C182        C  0.41731020  0.08169204  0.51401780     0.93300
O183        O  0.34474123  0.44315910  0.47991027    -0.82100
C184        C  0.32593718  0.40438564  0.49475981     0.93300
O185        O  0.11417159  0.14998953  0.46655223    -0.82100
Mg186      Mg  0.09041753  0.48947798  0.52949350     1.58200
O187        O  0.39775031  0.04169759  0.50458983    -0.80500
O188        O  0.04871175  0.38057886  0.47726498    -0.82100
C189        C  0.17229850  0.34405956  0.69504938     0.19300
C190        C  0.20076137  0.37763689  0.72702076    -0.18800
C191        C  0.19575160  0.37472286  0.78007902    -0.11100
C192        C  0.16150132  0.33821639  0.80340526     0.21600
C193        C  0.13291507  0.30477953  0.77148716    -0.20400
C194        C  0.13829858  0.30739153  0.71853169    -0.11200
C195        C  0.15287173  0.33471024  0.85999159    -0.15400
C196        C  0.18313913  0.35505421  0.89605666    -0.29300
C197        C  0.17796270  0.34954154  0.63799163    -0.03500
C198        C  0.16039249  0.31710758  0.60364107    -0.40100
H199        H  0.22707512  0.40661313  0.71080271     0.12700
H200        H  0.21809817  0.40171374  0.80260203     0.12300
H201        H  0.10590579  0.27632088  0.78766028     0.11800
H202        H  0.11488406  0.28096467  0.69620514     0.12000
H203        H  0.12008465  0.31300281  0.87257808     0.14800
H204        H  0.21633912  0.37497617  0.88393987     0.13500
H205        H  0.19827937  0.38188004  0.62366765     0.11200
H206        H  0.14164663  0.28456598  0.61764213     0.13200
C207        C  0.15755237  0.31730339  0.19651732     0.19300
C208        C  0.12341552  0.32040084  0.21859370    -0.18800
C209        C  0.11757985  0.31793759  0.27067294    -0.11100
C210        C  0.14564143  0.31241362  0.30133403     0.21600
C211        C  0.17820350  0.30693401  0.27918294    -0.20400
C212        C  0.18402497  0.30933564  0.22719304    -0.11200
C213        C  0.14067658  0.31245713  0.35636575    -0.15400
C214        C  0.17511623  0.32996947  0.38613046    -0.29300
C215        C  0.16622504  0.32169626  0.14178090    -0.03500
C216        C  0.15356171  0.34288353  0.11190365    -0.40100
H217        H  0.10095470  0.32443053  0.19602536     0.12700
H218        H  0.09171741  0.32123695  0.28710873     0.12300
H219        H  0.19922839  0.30084918  0.30201730     0.11800
H220        H  0.20978906  0.30576352  0.21095807     0.12000
H221        H  0.10859890  0.29883396  0.37269623     0.14800
H222        H  0.20699021  0.34565987  0.36918335     0.13500
H223        H  0.18453001  0.30805907  0.12551326     0.11200
H224        H  0.13717035  0.35841263  0.12793608     0.13200
C225        C  0.34563494  0.15744237  0.80404001     0.19300
C226        C  0.37774524  0.19651983  0.78281978    -0.18800
C227        C  0.38482851  0.20039665  0.73089852    -0.11100
C228        C  0.36007935  0.16548915  0.69948642     0.21600
C229        C  0.33012169  0.12576419  0.72082856    -0.20400
C230        C  0.32310925  0.12180985  0.77269341    -0.11200
C231        C  0.36507061  0.17110894  0.64448751    -0.15400
C232        C  0.33067463  0.15277847  0.61458630    -0.29300
C233        C  0.33501572  0.15250802  0.85849301    -0.03500
C234        C  0.34440892  0.18596521  0.88854263    -0.40100
H235        H  0.39754927  0.22420106  0.80586289     0.12700
H236        H  0.40875835  0.23098877  0.71511990     0.12300
H237        H  0.31178148  0.09788003  0.69734019     0.11800
H238        H  0.29919630  0.09110621  0.78823266     0.12000
H239        H  0.39688920  0.19188464  0.62844654     0.14800
H240        H  0.29890217  0.13424136  0.63148672     0.13500
H241        H  0.31856498  0.12038590  0.87444919     0.11200
H242        H  0.35871990  0.21778834  0.87258355     0.13200
C243        C  0.33086420  0.17464063  0.30604720     0.19300
C244        C  0.29819296  0.17173717  0.27456507    -0.18800
C245        C  0.30251172  0.17352200  0.22142605    -0.11100
C246        C  0.34019036  0.17903551  0.19743360     0.21600
C247        C  0.37301908  0.18231438  0.22897631    -0.20400
C248        C  0.36842138  0.17985590  0.28205958    -0.11200
C249        C  0.34756763  0.18358976  0.14050703    -0.15400
C250        C  0.31637976  0.17050888  0.10495892    -0.29300
C251        C  0.32546076  0.17430434  0.36317033    -0.03500
C252        C  0.34553627  0.16200273  0.39664649    -0.40100
H253        H  0.26895636  0.16814028  0.29124288     0.12700
H254        H  0.27659288  0.17166240  0.19942827     0.12300
H255        H  0.40273011  0.18702523  0.21240857     0.11800
H256        H  0.39495255  0.18325698  0.30419270     0.12000
H257        H  0.38055857  0.19743091  0.12711690     0.14800
H258        H  0.28312068  0.15484721  0.11751660     0.13500
H259        H  0.30271231  0.18303259  0.37808188     0.11200
H260        H  0.36632941  0.15098208  0.38142408     0.13200
C261        C  0.32462450  0.67491117  0.04719558     0.30600
C262        C  0.33666382  0.68122523  0.94457348     0.30600
C263        C  0.35066427  0.65501917  0.02424992    -0.05600
C264        C  0.28323530  0.65332181  0.01439023    -0.06400
C265        C  0.34874288  0.72117287  0.02484892    -0.06200
C266        C  0.35676156  0.65906607  0.97211161    -0.05600
C267        C  0.28995035  0.65690755  0.96231368    -0.06400
C268        C  0.35466701  0.72337669  0.97266078    -0.06200
C269        C  0.37983381  0.64013675  0.95733422    -0.31600
N270        N  0.38782471  0.62392373  0.99852314     0.14900
C271        C  0.37035981  0.63252045  0.03971778    -0.31600
H272        H  0.37147845  0.62269176  0.07776510     0.16800
C273        C  0.25060171  0.63817634  0.93912105    -0.30600
N274        N  0.21970470  0.62268269  0.97530511     0.13600
C275        C  0.23894464  0.63157756  0.02121950    -0.30600
C276        C  0.37726767  0.76546733  0.95833043    -0.30900
N277        N  0.38477353  0.78972899  0.99963499     0.14100
H278        H  0.38777610  0.77798945  0.92071548     0.16700
C279        C  0.36761753  0.76355453  0.04069472    -0.30900
H280        H  0.36968619  0.77452691  0.07904914     0.16700
H281        H  0.22186861  0.62347796  0.05691594     0.16700
H282        H  0.38955458  0.63755502  0.91940823     0.16800
H283        H  0.24484748  0.63631104  0.89909359     0.16700
C284        C  0.34028964  0.66062974  0.45487146     0.30600
C285        C  0.33450979  0.65627420  0.55818663     0.30600
C286        C  0.36216571  0.63851860  0.48174432    -0.05600
C287        C  0.35996610  0.70409336  0.48346101    -0.06400
C288        C  0.29410214  0.63602935  0.47799031    -0.06200
C289        C  0.35908321  0.63679524  0.53409900    -0.05600
C290        C  0.35618657  0.70124008  0.53598685    -0.06400
C291        C  0.29205533  0.63389130  0.53059909    -0.06200
C292        C  0.37895805  0.61560344  0.55171784    -0.31600
N293        N  0.39394438  0.60387190  0.51164330     0.14900
C294        C  0.38403898  0.61740960  0.46877878    -0.31600
H295        H  0.39215334  0.61213853  0.43112522     0.16800
C296        C  0.37415299  0.74189033  0.55550046    -0.30600
N297        N  0.38981916  0.76977785  0.51671221     0.13600
C298        C  0.38164616  0.74745750  0.47268393    -0.30600
C299        C  0.24985752  0.61233262  0.54561895    -0.30900
N300        N  0.22560731  0.60189407  0.50417351     0.14100
H301        H  0.23734644  0.60538465  0.58373960     0.16700
C302        C  0.25172145  0.61595580  0.46254157    -0.30900
H303        H  0.24064602  0.61184534  0.42417789     0.16700
H304        H  0.39065484  0.76179740  0.43565502     0.16700
H305        H  0.38192659  0.60875262  0.59054255     0.16800
H306        H  0.37643278  0.75065943  0.59479889     0.16700
C307        C  0.16134907  0.84579125  0.05599465     0.30600
C308        C  0.17408373  0.85092945  0.95360401     0.30600
C309        C  0.14188610  0.86804425  0.02755054    -0.05600
C310        C  0.20815780  0.86983276  0.03868743    -0.06400
C311        C  0.14304430  0.80321325  0.02865065    -0.06200
C312        C  0.14780008  0.87108493  0.97536288    -0.05600
C313        C  0.21519289  0.87289534  0.98672968    -0.06400
C314        C  0.14980976  0.80491969  0.97663995    -0.06200
C315        C  0.12788423  0.89324921  0.95909534    -0.31600
N316        N  0.11064045  0.90264549  0.99995789     0.14900
C317        C  0.11910209  0.88743366  0.04161331    -0.31600
H318        H  0.10967941  0.89093175  0.07934058     0.16800
C319        C  0.25948391  0.89463679  0.98024632    -0.30600
N320        N  0.27842971  0.90416642  0.02630797     0.13600
C321        C  0.24736145  0.88909866  0.06225560    -0.30600
C322        C  0.13103443  0.76243947  0.96135962    -0.30900
N323        N  0.11301277  0.73656437  0.00246489     0.14100
H324        H  0.12954308  0.75116207  0.92323633     0.16700
C325        C  0.11986183  0.76122534  0.04340019    -0.30900
H326        H  0.10872923  0.74928318  0.08109832     0.16700
H327        H  0.25292393  0.89154391  0.10234598     0.16700
H328        H  0.12650382  0.90230945  0.92074595     0.16800
H329        H  0.27677890  0.90228661  0.94470705     0.16700
C330        C  0.17116140  0.82749318  0.44244948     0.30600
C331        C  0.16530357  0.82242669  0.54559000     0.30600
C332        C  0.14812509  0.84842934  0.46707859    -0.05600
C333        C  0.14781700  0.78240838  0.46391453    -0.06400
C334        C  0.21359660  0.84815395  0.46991408    -0.06200
C335        C  0.14483608  0.84632402  0.51961553    -0.05600
C336        C  0.14406927  0.77917397  0.51618432    -0.06400
C337        C  0.21156459  0.84554004  0.52244759    -0.06200
C338        C  0.12236629  0.86683881  0.53258807    -0.31600
N339        N  0.11249014  0.88044455  0.48961680     0.14900
C340        C  0.12807196  0.86937553  0.44956820    -0.31600
H341        H  0.12478115  0.87593788  0.41073270     0.16800
C342        C  0.12238999  0.73561346  0.52643523    -0.30600
N343        N  0.11407091  0.71364184  0.48217934     0.13600
C344        C  0.12963821  0.74190747  0.44380363    -0.30600
C345        C  0.25401834  0.86567391  0.53777816    -0.30900
N346        N  0.28009587  0.88032257  0.49610355     0.14100
H347        H  0.26514603  0.87007429  0.57614401     0.16700
C348        C  0.25575086  0.86998638  0.45478555    -0.30900
H349        H  0.26819949  0.87784666  0.41669534     0.16700
H350        H  0.12783790  0.73352512  0.40440400     0.16700
H351        H  0.11341343  0.87113236  0.57025252     0.16800
H352        H  0.11394113  0.72085856  0.56327519     0.16700
O353        O  0.45008159  0.53594232  0.04178784    -0.87700
C354        C  0.42255367  0.94455350  0.93388939     0.88300
Mg355      Mg  0.49893880  0.60239036  0.03207576     1.58100
O356        O  0.48017730  0.94084774  0.03943991    -0.87500
O357        O  0.42805834  0.98234054  0.09372249    -0.74800
C358        C  0.17416972  0.60135781  0.96719120     0.93300
O359        O  0.45609729  0.54923675  0.92188074    -0.74600
O360        O  0.15629437  0.62350513  0.95974992    -0.82100
Mg361      Mg  0.40477006  0.00785572  0.98157317     1.58000
C362        C  0.08901986  0.92670790  0.00104425     0.93300
O363        O  0.34591516  0.96598529  0.03146002    -0.80400
H364        H  0.48550125  0.93286560  0.11277562    -0.05700
C365        C  0.05664413  0.50499629  0.91502398     0.88200
O366        O  0.04754566  0.59323176  0.07725801    -0.74900
O367        O  0.42129219  0.95807011  0.97612341    -0.87700
O368        O  0.04833092  0.90703442  0.99607569    -0.80500
C369        C  0.40932648  0.83552095  0.99864380     0.93400
C370        C  0.32385987  0.92531704  0.03470325     0.93200
Mg371      Mg  0.09257590  0.51803802  0.01887981     1.58000
O372        O  0.15224532  0.56068304  0.97049037    -0.80400
O373        O  0.04138104  0.97613147  0.07831064    -0.74600
O374        O  0.39220228  0.85653297  0.01518504    -0.80500
O375        O  0.38679650  0.55923378  0.99159770    -0.82200
O376        O  0.10536615  0.66964439  0.98669649    -0.80500
C377        C  0.00141005  0.94884980  0.07813948     0.87700
O378        O  0.07567088  0.56761523  0.02461864    -0.87600
O379        O  0.04742195  0.99027326  0.95800837    -0.87700
O380        O  0.06997264  0.54429984  0.90661591    -0.74800
Mg381      Mg  0.41277017  0.92317375  0.04552012     1.58000
O382        O  0.44749519  0.85386552  0.98081114    -0.82200
H383        H  0.44497245  0.54273467  0.11578040    -0.05900
O384        O  0.01745511  0.58528134  0.96055971    -0.87400
H385        H  0.01193428  0.59207627  0.88692474    -0.05700
H386        H  0.09464390  0.58083708  0.09602115    -0.05900
C387        C  0.49609804  0.57659302  0.92184245     0.87600
C388        C  0.44113549  0.02152795  0.08491359     0.88200
C389        C  0.07395973  0.58081985  0.06691207     0.88300
H390        H  0.05291495  0.98398879  0.88396139    -0.05900
O391        O  0.44907783  0.93237528  0.92319222    -0.74900
Mg392      Mg  0.08496502  0.60314937  0.95545285     1.58000
H393        H  0.40141229  0.94413245  0.90508669    -0.05900
C394        C  0.40913506  0.59961694  0.99718646     0.93300
O395        O  0.04985981  0.67238779  0.02011968    -0.82100
C396        C  0.08829843  0.69072942  0.00322899     0.93300
O397        O  0.34156042  0.90298944  0.04196798    -0.82100
Mg398      Mg  0.99837496  0.92370822  0.96764032     1.58200
O399        O  0.44989251  0.61917184  0.00112482    -0.80500
O400        O  0.11093839  0.96692262  0.00833144    -0.82100
O401        O  0.48175430  0.54324401  0.46325206    -0.87700
C402        C  0.06982055  0.56361632  0.57165789     0.88300
Mg403      Mg  0.41496380  0.49404670  0.46973010     1.58100
O404        O  0.07568771  0.51207986  0.46053837    -0.87500
O405        O  0.03648146  0.56700589  0.41181191    -0.74800
C406        C  0.41229477  0.81545483  0.52101275     0.93300
O407        O  0.46515605  0.53006423  0.58336890    -0.74600
O408        O  0.39170639  0.83412792  0.53397588    -0.82100
Mg409      Mg  0.00826697  0.58426379  0.52854571     1.58000
C410        C  0.08866400  0.90214242  0.48661191     0.93300
O411        O  0.05239212  0.64666760  0.48700720    -0.80400
H412        H  0.08647813  0.51158284  0.38671012    -0.05700
C413        C  0.50859603  0.92919066  0.57816787     0.88200
O414        O  0.42444596  0.94751403  0.41960292    -0.74900
O415        O  0.05782807  0.56766863  0.52994338    -0.87700
O416        O  0.10803513  0.94228683  0.49486909    -0.80500
C417        C  0.17978175  0.57865164  0.50530297     0.93400
C418        C  0.09249885  0.66800984  0.47737361     0.93200
Mg419      Mg  0.49773852  0.89946882  0.46989455     1.58000
O420        O  0.45182211  0.83608890  0.50835137    -0.80400
O421        O  0.04174628  0.95396432  0.41567960    -0.74600
O422        O  0.15981489  0.59733389  0.49111724    -0.80500
O423        O  0.45730844  0.60296013  0.52296352    -0.82200
O424        O  0.34647094  0.88628359  0.50872991    -0.80500
C425        C  0.06915174  0.99354935  0.41977207     0.87700
O426        O  0.44818529  0.91618776  0.46862037    -0.87600
O427        O  0.02371878  0.94024836  0.53547037    -0.87700
O428        O  0.46953077  0.91691710  0.58749135    -0.74800
Mg429      Mg  0.09407856  0.57922353  0.46006010     1.58000
O430        O  0.16043686  0.53988189  0.52002793    -0.82200
H431        H  0.47674276  0.55237704  0.39014939    -0.05900
O432        O  0.43056452  0.97196723  0.53849031    -0.87400
H433        H  0.42056630  0.97247200  0.61251825    -0.05700
H434        H  0.43592582  0.90064350  0.39606741    -0.05900
C435        C  0.43757079  0.49052353  0.57930622     0.87600
C436        C  0.99720590  0.55429662  0.42065099     0.88200
C437        C  0.43582805  0.92008957  0.42706056     0.88300
H438        H  0.02924052  0.93095011  0.60835666    -0.05900
O439        O  0.08078396  0.53592745  0.57942456    -0.74900
Mg440      Mg  0.41221812  0.90488910  0.53923691     1.58000
H441        H  0.06964938  0.58311309  0.60257065    -0.05900
C442        C  0.41731594  0.58169365  0.51401621     0.93300
O443        O  0.34473547  0.94315519  0.47991498    -0.82100
C444        C  0.32593146  0.90438154  0.49476396     0.93300
O445        O  0.11417757  0.64999037  0.46655286    -0.82100
Mg446      Mg  0.09041563  0.98947909  0.52949769     1.58200
O447        O  0.39775662  0.54169938  0.50458766    -0.80500
O448        O  0.04870884  0.88057973  0.47727076    -0.82100
C449        C  0.17230083  0.84405846  0.69504722     0.19300
C450        C  0.20076649  0.87763524  0.72701746    -0.18800
C451        C  0.19575708  0.87472290  0.78007583    -0.11100
C452        C  0.16150457  0.83821877  0.80340305     0.21600
C453        C  0.13291650  0.80478219  0.77148602    -0.20400
C454        C  0.13829946  0.80739249  0.71853068    -0.11200
C455        C  0.15287422  0.83471429  0.85998911    -0.15400
C456        C  0.18314117  0.85505713  0.89605474    -0.29300
C457        C  0.17796320  0.84953914  0.63798936    -0.03500
C458        C  0.16038810  0.81710486  0.60363949    -0.40100
H459        H  0.22708175  0.90660982  0.71079841     0.12700
H460        H  0.21810561  0.90171343  0.80259807     0.12300
H461        H  0.10590578  0.77632510  0.78766002     0.11800
H462        H  0.11488307  0.78096607  0.69620507     0.12000
H463        H  0.12008670  0.81300812  0.87257513     0.14800
H464        H  0.21634149  0.87497798  0.88393865     0.13500
H465        H  0.19828236  0.88187691  0.62366458     0.11200
H466        H  0.14163991  0.78456357  0.61764070     0.13200
C467        C  0.15755076  0.81730117  0.19651544     0.19300
C468        C  0.12341396  0.82039943  0.21859072    -0.18800
C469        C  0.11757786  0.81793716  0.27066983    -0.11100
C470        C  0.14563900  0.81241355  0.30133207     0.21600
C471        C  0.17820109  0.80693321  0.27918223    -0.20400
C472        C  0.18402292  0.80933376  0.22719235    -0.11200
C473        C  0.14067327  0.81245762  0.35636366    -0.15400
C474        C  0.17511235  0.82997011  0.38612923    -0.29300
C475        C  0.16622380  0.82169320  0.14177900    -0.03500
C476        C  0.15356203  0.84288166  0.11190161    -0.40100
H477        H  0.10095337  0.82442885  0.19602155     0.12700
H478        H  0.09171530  0.82123685  0.28710466     0.12300
H479        H  0.19922560  0.80084855  0.30201763     0.11800
H480        H  0.20978703  0.80576107  0.21095821     0.12000
H481        H  0.10859523  0.79883407  0.37269336     0.14800
H482        H  0.20698664  0.84566078  0.36918282     0.13500
H483        H  0.18452796  0.80805500  0.12551183     0.11200
H484        H  0.13717188  0.85841185  0.12793434     0.13200
C485        C  0.34563701  0.65743459  0.80404693     0.19300
C486        C  0.37775447  0.69650838  0.78282728    -0.18800
C487        C  0.38483735  0.70038449  0.73090598    -0.11100
C488        C  0.36008065  0.66547988  0.69949322     0.21600
C489        C  0.33011591  0.62575743  0.72083512    -0.20400
C490        C  0.32310375  0.62180376  0.77270006    -0.11200
C491        C  0.36507224  0.67110067  0.64449424    -0.15400
C492        C  0.33067658  0.65277397  0.61459227    -0.29300
C493        C  0.33501765  0.65250304  0.85849966    -0.03500
C494        C  0.34441387  0.68596243  0.88854694    -0.40100
H495        H  0.39756387  0.72418721  0.80587120     0.12700
H496        H  0.40877293  0.73097439  0.71512783     0.12300
H497        H  0.31176976  0.59787462  0.69734655     0.11800
H498        H  0.29918515  0.59110261  0.78823907     0.12000
H499        H  0.39689150  0.69187455  0.62845363     0.14800
H500        H  0.29890350  0.63423873  0.63149189     0.13500
H501        H  0.31856351  0.62038140  0.87445732     0.11200
H502        H  0.35872833  0.71778527  0.87258594     0.13200
C503        C  0.33087360  0.67464929  0.30605225     0.19300
C504        C  0.29821057  0.67176629  0.27457127    -0.18800
C505        C  0.30252739  0.67354812  0.22143195    -0.11100
C506        C  0.34019610  0.67903799  0.19743776     0.21600
C507        C  0.37301733  0.68229736  0.22897899    -0.20400
C508        C  0.36842119  0.67984166  0.28206262    -0.11200
C509        C  0.34757181  0.68358923  0.14051077    -0.15400
C510        C  0.31638336  0.67051306  0.10496370    -0.29300
C511        C  0.32547159  0.67431455  0.36317601    -0.03500
C512        C  0.34554022  0.66200468  0.39665213    -0.40100
H513        H  0.26898186  0.66818776  0.29125023     0.12700
H514        H  0.27661569  0.67170513  0.19943486     0.12300
H515        H  0.40272113  0.68699032  0.21240980     0.11800
H516        H  0.39494669  0.68322667  0.30419402     0.12000
H517        H  0.38056164  0.69742285  0.12711956     0.14800
H518        H  0.28312478  0.65485713  0.11752299     0.13500
H519        H  0.30272977  0.68305134  0.37808826     0.11200
H520        H  0.36632737  0.65097697  0.38142950     0.13200
C521        C  0.82462321  0.17491008  0.04718286     0.30600
C522        C  0.83665938  0.18123330  0.94456052     0.30600
C523        C  0.85066135  0.15501896  0.02422988    -0.05600
C524        C  0.78323364  0.15332311  0.01437923    -0.06400
C525        C  0.84874124  0.22117388  0.02484173    -0.06200
C526        C  0.85675722  0.15907042  0.97209135    -0.05600
C527        C  0.78994651  0.15691410  0.96230250    -0.06400
C528        C  0.85466358  0.22338193  0.97265338    -0.06200
C529        C  0.87982346  0.14013630  0.95730654    -0.31600
N530        N  0.88781163  0.12391592  0.99849090     0.14900
C531        C  0.87035151  0.13251310  0.03968984    -0.31600
H532        H  0.87146988  0.12268010  0.07773514     0.16800
C533        C  0.75059656  0.13817983  0.93911268    -0.30600
N534        N  0.71970170  0.12267829  0.97529931     0.13600
C535        C  0.73894379  0.13157170  0.02121183    -0.30600
C536        C  0.87726445  0.26547340  0.95832732    -0.30900
N537        N  0.88477314  0.28973201  0.99963480     0.14100
H538        H  0.88777181  0.27799843  0.92071316     0.16700
C539        C  0.86761799  0.26355466  0.04069250    -0.30900
H540        H  0.86968882  0.27452431  0.07904841     0.16700
H541        H  0.72186930  0.12346578  0.05690948     0.16700
H542        H  0.88954231  0.13755679  0.91937859     0.16800
H543        H  0.74483990  0.13631671  0.89908604     0.16700
C544        C  0.84028377  0.16062877  0.45485880     0.30600
C545        C  0.83450989  0.15628383  0.55817409     0.30600
C546        C  0.86216748  0.13852634  0.48173511    -0.05600
C547        C  0.85995519  0.20409510  0.48344216    -0.06400
C548        C  0.79409760  0.13602413  0.47798114    -0.06200
C549        C  0.85908871  0.13680970  0.53409010    -0.05600
C550        C  0.85617812  0.20124654  0.53596817    -0.06400
C551        C  0.79205405  0.13389103  0.53059017    -0.06200
C552        C  0.87896498  0.11562090  0.55171325    -0.31600
N553        N  0.89394732  0.10388269  0.51164122     0.14900
C554        C  0.88403856  0.11741407  0.46877373    -0.31600
H555        H  0.89214695  0.11213452  0.43112107     0.16800
C556        C  0.87414401  0.24189778  0.55547731    -0.30600
N557        N  0.88980834  0.26978210  0.51668642     0.13600
C558        C  0.88163384  0.24745854  0.47266025    -0.30600
C559        C  0.74985723  0.11233090  0.54561380    -0.30900
N560        N  0.72560421  0.10188760  0.50417050     0.14100
H561        H  0.73734855  0.10538747  0.58373586     0.16700
C562        C  0.75171569  0.11594694  0.46253608    -0.30900
H563        H  0.74063771  0.11183442  0.42417351     0.16700
H564        H  0.89064318  0.26179575  0.43563007     0.16700
H565        H  0.88193376  0.10877313  0.59053917     0.16800
H566        H  0.87642759  0.25067004  0.59477517     0.16700
C567        C  0.66135227  0.34579532  0.05599644     0.30600
C568        C  0.67407903  0.35092123  0.95360442     0.30600
C569        C  0.64188616  0.36804377  0.02754937    -0.05600
C570        C  0.70815953  0.36983571  0.03868431    -0.06400
C571        C  0.64304670  0.30321400  0.02865942    -0.06200
C572        C  0.64779552  0.37107736  0.97536101    -0.05600
C573        C  0.71519057  0.37289208  0.98672582    -0.06400
C574        C  0.64980848  0.30491428  0.97664821    -0.06200
C575        C  0.62787513  0.39323600  0.95908960    -0.31600
N576        N  0.61063353  0.40263634  0.99995082     0.14900
C577        C  0.61910166  0.38743326  0.04160914    -0.31600
H578        H  0.60968269  0.39093698  0.07933624     0.16800
C579        C  0.75948096  0.39463214  0.98023785    -0.30600
N580        N  0.77843016  0.40416681  0.02629739     0.13600
C581        C  0.74736489  0.38910390  0.06224843    -0.30600
C582        C  0.63103532  0.26243240  0.96137576    -0.30900
N583        N  0.61301824  0.23656205  0.00248558     0.14100
H584        H  0.62954201  0.25115045  0.92325419     0.16700
C585        C  0.61986810  0.26122770  0.04341660    -0.30900
H586        H  0.60873854  0.24928978  0.08111673     0.16700
H587        H  0.75293055  0.39155384  0.10233815     0.16700
H588        H  0.62649064  0.40229016  0.92073865     0.16800
H589        H  0.77677333  0.40227741  0.94469687     0.16700
C590        C  0.67116099  0.32749254  0.44244621     0.30600
C591        C  0.66530728  0.32242862  0.54558711     0.30600
C592        C  0.64812235  0.34842556  0.46707578    -0.05600
C593        C  0.64782085  0.28240835  0.46391272    -0.06400
C594        C  0.71359760  0.34815830  0.46990814    -0.06200
C595        C  0.64483557  0.34632196  0.51961286    -0.05600
C596        C  0.64407494  0.27917506  0.51618251    -0.06400
C597        C  0.71156819  0.34554588  0.52244201    -0.06200
C598        C  0.62236651  0.36683727  0.53258557    -0.31600
N599        N  0.61248853  0.38044100  0.48961417     0.14900
C600        C  0.62806817  0.36937034  0.44956528    -0.31600
H601        H  0.62477674  0.37593226  0.41072983     0.16800
C602        C  0.62239298  0.23561440  0.52643408    -0.30600
N603        N  0.61407050  0.21364167  0.48217859     0.13600
C604        C  0.62963863  0.24190690  0.44380238    -0.30600
C605        C  0.75402350  0.36568549  0.53776892    -0.30900
N606        N  0.78009888  0.38033599  0.49609226     0.14100
H607        H  0.76515358  0.37008752  0.57613383     0.16700
C608        C  0.75575107  0.36999555  0.45477633    -0.30900
H609        H  0.76819724  0.37785515  0.41668500     0.16700
H610        H  0.62783525  0.23352391  0.40440288     0.16700
H611        H  0.61341627  0.37113355  0.57025049     0.16800
H612        H  0.61394330  0.22086002  0.56327433     0.16700
O613        O  0.95007482  0.03594542  0.04176674    -0.87700
C614        C  0.92255794  0.44455097  0.93387230     0.88300
Mg615      Mg  0.99892917  0.10239314  0.03205253     1.58100
O616        O  0.98017880  0.44085510  0.03943042    -0.87500
O617        O  0.92805849  0.48234821  0.09370326    -0.74800
C618        C  0.67416640  0.10135239  0.96719175     0.93300
O619        O  0.95609880  0.04923253  0.92185751    -0.74600
O620        O  0.65629050  0.12349947  0.95975375    -0.82100
Mg621      Mg  0.90476933  0.50785366  0.98154693     1.58000
C622        C  0.58901393  0.42669951  0.00103377     0.93300
O623        O  0.84591518  0.46598649  0.03143495    -0.80400
H624        H  0.98550162  0.43287513  0.11276698    -0.05700
C625        C  0.55663887  0.00499695  0.91503461     0.88200
O626        O  0.54754933  0.09322554  0.07728178    -0.74900
O627        O  0.92129286  0.45806877  0.97610460    -0.87700
O628        O  0.54832601  0.40702799  0.99605496    -0.80500
C629        C  0.90932770  0.33552383  0.99864573     0.93400
C630        C  0.82386080  0.42531893  0.03468771     0.93200
Mg631      Mg  0.59257428  0.01803289  0.01889004     1.58000
O632        O  0.65224275  0.06067812  0.97049971    -0.80400
O633        O  0.54137867  0.47612349  0.07830630    -0.74600
O634        O  0.89220263  0.35653673  0.01518056    -0.80500
O635        O  0.88678847  0.05922796  0.99156007    -0.82200
O636        O  0.60537049  0.16964139  0.98672082    -0.80500
C637        C  0.50140770  0.44884188  0.07813673     0.87700
O638        O  0.57567281  0.06761181  0.02463543    -0.87600
O639        O  0.54741856  0.49026982  0.95800481    -0.87700
O640        O  0.56996673  0.04430054  0.90662904    -0.74800
Mg641      Mg  0.91277153  0.42317913  0.04550786     1.58000
O642        O  0.94749751  0.35386746  0.98081646    -0.82200
H643        H  0.94496462  0.04274340  0.11575777    -0.05900
O644        O  0.51745559  0.08528144  0.96058668    -0.87400
H645        H  0.51193423  0.09208075  0.88695303    -0.05700
H646        H  0.59464765  0.08082896  0.09603777    -0.05900
C647        C  0.99609886  0.07659092  0.92182275     0.87600
C648        C  0.94113460  0.52153438  0.08488841     0.88200
C649        C  0.57396301  0.08081406  0.06693096     0.88300
H650        H  0.55290595  0.48398737  0.88395619    -0.05900
O651        O  0.94908358  0.43237328  0.92318080    -0.74900
Mg652      Mg  0.58496343  0.10314742  0.95547140     1.58000
H653        H  0.90141860  0.44412855  0.90506614    -0.05900
C654        C  0.90912447  0.09961133  0.99714979     0.93300
O655        O  0.54986682  0.17238634  0.02015003    -0.82100
C656        C  0.58830441  0.19072713  0.00325578     0.93300
O657        O  0.84156217  0.40299284  0.04195702    -0.82100
Mg658      Mg  0.49836832  0.42370488  0.96763299     1.58200
O659        O  0.94988172  0.11916853  0.00109126    -0.80500
O660        O  0.61093262  0.46691308  0.00832845    -0.82100
O661        O  0.98174898  0.04324720  0.46326209    -0.87700
C662        C  0.56981877  0.06361980  0.57166253     0.88300
Mg663      Mg  0.91495916  0.99405085  0.46973129     1.58100
O664        O  0.57568286  0.01207815  0.46054513    -0.87500
O665        O  0.53647566  0.06700166  0.41181685    -0.74800
C666        C  0.91228899  0.31545903  0.52098541     0.93300
O667        O  0.96514683  0.03005972  0.58337988    -0.74600
O668        O  0.89170469  0.33413587  0.53394927    -0.82100
Mg669      Mg  0.50826227  0.08426204  0.52854658     1.58000
C670        C  0.58866452  0.40214054  0.48660919     0.93300
O671        O  0.55238962  0.14666753  0.48700717    -0.80400
H672        H  0.58646008  0.01157819  0.38671413    -0.05700
C673        C  0.00859610  0.42918800  0.57815478     0.88200
O674        O  0.92445474  0.44752585  0.41958898    -0.74900
O675        O  0.55782548  0.06766983  0.52994755    -0.87700
O676        O  0.60803559  0.44228336  0.49487600    -0.80500
C677        C  0.67977864  0.07864805  0.50530445     0.93400
C678        C  0.59249672  0.16800923  0.47737351     0.93200
Mg679      Mg  0.99774469  0.39947124  0.46988019     1.58000
O680        O  0.95181719  0.33608907  0.50832688    -0.80400
O681        O  0.54174677  0.45396555  0.41567481    -0.74600
O682        O  0.65981281  0.09733115  0.49111754    -0.80500
O683        O  0.95730372  0.10296025  0.52298280    -0.82200
O684        O  0.84647433  0.38629539  0.50871193    -0.80500
C685        C  0.56915483  0.49354997  0.41976675     0.87700
O686        O  0.94819427  0.41619702  0.46860225    -0.87600
O687        O  0.52372111  0.44024787  0.53546421    -0.87700
O688        O  0.96953086  0.41691743  0.58747432    -0.74800
Mg689      Mg  0.59407471  0.07922153  0.46006370     1.58000
O690        O  0.66043259  0.03987967  0.52003410    -0.82200
H691        H  0.97673483  0.05238442  0.39016177    -0.05900
O692        O  0.93056923  0.47197383  0.53847726    -0.87400
H693        H  0.92056588  0.47247086  0.61250492    -0.05700
H694        H  0.93593985  0.40066042  0.39604707    -0.05900
C695        C  0.93755863  0.99052070  0.57931156     0.87600
C696        C  0.49719938  0.05428913  0.42065625     0.88200
C697        C  0.93583934  0.42010264  0.42704257     0.88300
H698        H  0.52924858  0.43094475  0.60834743    -0.05900
O699        O  0.58078203  0.03593111  0.57943127    -0.74900
Mg700      Mg  0.91222152  0.40489625  0.53921679     1.58000
H701        H  0.56964844  0.08311823  0.60257354    -0.05900
C702        C  0.91731374  0.08169944  0.51401925     0.93300
O703        O  0.84473956  0.44316763  0.47989909    -0.82100
C704        C  0.82593488  0.40439409  0.49474847     0.93300
O705        O  0.61417463  0.14998878  0.46655338    -0.82100
Mg706      Mg  0.59041755  0.48947800  0.52949577     1.58200
O707        O  0.89775330  0.04170735  0.50457784    -0.80500
O708        O  0.54871099  0.38058025  0.47725961    -0.82100
C709        C  0.67229236  0.34405658  0.69504656     0.19300
C710        C  0.70075581  0.37763209  0.72701946    -0.18800
C711        C  0.69574509  0.37471698  0.78007765    -0.11100
C712        C  0.66149294  0.33821107  0.80340278     0.21600
C713        C  0.63290526  0.30477648  0.77148311    -0.20400
C714        C  0.63828988  0.30738947  0.71852754    -0.11200
C715        C  0.65286398  0.33470374  0.85998964    -0.15400
C716        C  0.68313284  0.35504451  0.89605414    -0.29300
C717        C  0.67795832  0.34953966  0.63798871    -0.03500
C718        C  0.66039100  0.31710613  0.60363715    -0.40100
H719        H  0.72707142  0.40660798  0.71080255     0.12700
H720        H  0.71809263  0.40170642  0.80260152     0.12300
H721        H  0.60589416  0.27631839  0.78765519     0.11800
H722        H  0.61487461  0.28096429  0.69619961     0.12000
H723        H  0.62007643  0.31299891  0.87257673     0.14800
H724        H  0.71633281  0.37496384  0.88393574     0.13500
H725        H  0.69827398  0.38187868  0.62366570     0.11200
H726        H  0.64164662  0.28456428  0.61763792     0.13200
C727        C  0.65755222  0.31730536  0.19651706     0.19300
C728        C  0.62341472  0.32040336  0.21859089    -0.18800
C729        C  0.61757434  0.31793562  0.27066951    -0.11100
C730        C  0.64563202  0.31240687  0.30133199     0.21600
C731        C  0.67819307  0.30692458  0.27918302    -0.20400
C732        C  0.68401926  0.30933077  0.22719399    -0.11200
C733        C  0.64066749  0.31245186  0.35636327    -0.15400
C734        C  0.67510838  0.32996802  0.38612604    -0.29300
C735        C  0.66623019  0.32170268  0.14178186    -0.03500
C736        C  0.65356877  0.34289108  0.11190393    -0.40100
H737        H  0.60095744  0.32443751  0.19602114     0.12700
H738        H  0.59171238  0.32123661  0.28710388     0.12300
H739        H  0.69921444  0.30083580  0.30201885     0.11800
H740        H  0.70978318  0.30575731  0.21096073     0.12000
H741        H  0.60858979  0.29882656  0.37269470     0.14800
H742        H  0.70698180  0.34566049  0.36917705     0.13500
H743        H  0.68453444  0.30806441  0.12551500     0.11200
H744        H  0.63717827  0.35842130  0.12793559     0.13200
C745        C  0.84563326  0.15745606  0.80403022     0.19300
C746        C  0.87774973  0.19653177  0.78281276    -0.18800
C747        C  0.88483691  0.20040870  0.73089200    -0.11100
C748        C  0.86008544  0.16550292  0.69947847     0.21600
C749        C  0.83012265  0.12577920  0.72081895    -0.20400
C750        C  0.82310562  0.12182511  0.77268250    -0.11200
C751        C  0.86507676  0.17112302  0.64447969    -0.15400
C752        C  0.83068009  0.15278983  0.61457959    -0.29300
C753        C  0.83501069  0.15252024  0.85848188    -0.03500
C754        C  0.84440831  0.18597665  0.88853418    -0.40100
H755        H  0.89755520  0.22421133  0.80585764     0.12700
H756        H  0.90877097  0.23099963  0.71511484     0.12300
H757        H  0.81178106  0.09789561  0.69733011     0.11800
H758        H  0.79918804  0.09112262  0.78821993     0.12000
H759        H  0.89689499  0.19189901  0.62843796     0.14800
H760        H  0.79890810  0.13425268  0.63148099     0.13500
H761        H  0.81855492  0.12039712  0.87443553     0.11200
H762        H  0.85872454  0.21780120  0.87257788     0.13200
C763        C  0.83086484  0.17464317  0.30603953     0.19300
C764        C  0.79819958  0.17175299  0.27455694    -0.18800
C765        C  0.80251813  0.17353568  0.22141777    -0.11100
C766        C  0.84019094  0.17903393  0.19742550     0.21600
C767        C  0.87301434  0.18230088  0.22896852    -0.20400
C768        C  0.86841654  0.17984429  0.28205186    -0.11200
C769        C  0.84756868  0.18358628  0.14049884    -0.15400
C770        C  0.81638104  0.17050696  0.10495064    -0.29300
C771        C  0.82546138  0.17430735  0.36316296    -0.03500
C772        C  0.84553185  0.16199990  0.39663944    -0.40100
H773        H  0.76896763  0.16816792  0.29123457     0.12700
H774        H  0.77660428  0.17168661  0.19941936     0.12300
H775        H  0.90272113  0.18700049  0.21240093     0.11800
H776        H  0.89494377  0.18323542  0.30418485     0.12000
H777        H  0.88055938  0.19742481  0.12710900     0.14800
H778        H  0.78312218  0.15484716  0.11750892     0.13500
H779        H  0.80271794  0.18304226  0.37807474     0.11200
H780        H  0.86632076  0.15097402  0.38141738     0.13200
C781        C  0.82462592  0.67491058  0.04718529     0.30600
C782        C  0.83666244  0.68123396  0.94456302     0.30600
C783        C  0.85066358  0.65501896  0.02423236    -0.05600
C784        C  0.78323608  0.65332423  0.01438132    -0.06400
C785        C  0.84874465  0.72117426  0.02484423    -0.06200
C786        C  0.85675937  0.65907045  0.97209394    -0.05600
C787        C  0.78994937  0.65691547  0.96230460    -0.06400
C788        C  0.85466730  0.72338260  0.97265591    -0.06200
C789        C  0.87982639  0.64013736  0.95730889    -0.31600
N790        N  0.88781542  0.62391771  0.99849314     0.14900
C791        C  0.87035487  0.63251412  0.03969227    -0.31600
H792        H  0.87147390  0.62268149  0.07773748     0.16800
C793        C  0.75059966  0.63818122  0.93911402    -0.30600
N794        N  0.71970414  0.62267928  0.97529983     0.13600
C795        C  0.73894588  0.63157251  0.02121287    -0.30600
C796        C  0.87726826  0.76547419  0.95833033    -0.30900
N797        N  0.88477643  0.78973235  0.99963831     0.14100
H798        H  0.88777547  0.77799945  0.92071632     0.16700
C799        C  0.86762115  0.76355470  0.04069559    -0.30900
H800        H  0.86969147  0.77452399  0.07905163     0.16700
H801        H  0.72187104  0.62346596  0.05691023     0.16700
H802        H  0.88954529  0.63755819  0.91938097     0.16800
H803        H  0.74484358  0.63631792  0.89908712     0.16700
C804        C  0.84028935  0.66063175  0.45486206     0.30600
C805        C  0.83451354  0.65628260  0.55817727     0.30600
C806        C  0.86217155  0.63852740  0.48173697    -0.05600
C807        C  0.85996125  0.70409700  0.48344797    -0.06400
C808        C  0.79410275  0.63602714  0.47798322    -0.06200
C809        C  0.85909165  0.63680816  0.53409186    -0.05600
C810        C  0.85618341  0.70124626  0.53597392    -0.06400
C811        C  0.79205820  0.63389213  0.53059214    -0.06200
C812        C  0.87896792  0.61561867  0.55171306    -0.31600
N813        N  0.89395153  0.60388312  0.51163973     0.14900
C814        C  0.88404357  0.61741663  0.46877362    -0.31600
H815        H  0.89215355  0.61213980  0.43112046     0.16800
C816        C  0.87414815  0.74189660  0.55548550    -0.30600
N817        N  0.88981210  0.76978251  0.51669607     0.13600
C818        C  0.88163893  0.74746085  0.47266863    -0.30600
C819        C  0.74986109  0.61233095  0.54561474    -0.30900
N820        N  0.72560888  0.60188864  0.50417082     0.14100
H821        H  0.73735169  0.60538564  0.58373623     0.16700
C822        C  0.75172112  0.61594985  0.46253716    -0.30900
H823        H  0.74064387  0.61183829  0.42417426     0.16700
H824        H  0.89064776  0.76179967  0.43563916     0.16700
H825        H  0.88193657  0.60876941  0.59053832     0.16800
H826        H  0.87643026  0.75066711  0.59478373     0.16700
C827        C  0.66134979  0.84579203  0.05599681     0.30600
C828        C  0.67407930  0.85092005  0.95360525     0.30600
C829        C  0.64188484  0.86804149  0.02754937    -0.05600
C830        C  0.70815759  0.86983219  0.03868634    -0.06400
C831        C  0.64304479  0.80321125  0.02865868    -0.06200
C832        C  0.64779574  0.87107640  0.97536128    -0.05600
C833        C  0.71518982  0.87288952  0.98672806    -0.06400
C834        C  0.64980789  0.80491262  0.97664765    -0.06200
C835        C  0.62787743  0.89323721  0.95908993    -0.31600
N836        N  0.61063584  0.90263779  0.99995111     0.14900
C837        C  0.61910146  0.88743221  0.04160900    -0.31600
H838        H  0.60968166  0.89093528  0.07933606     0.16800
C839        C  0.75948018  0.89462895  0.98024113    -0.30600
N840        N  0.77842847  0.90416243  0.02630111     0.13600
C841        C  0.74736256  0.88909927  0.06225145    -0.30600
C842        C  0.63103657  0.76243115  0.96137416    -0.30900
N843        N  0.61301928  0.73655996  0.00248331     0.14100
H844        H  0.62954481  0.75115007  0.92325256     0.16700
C845        C  0.61986733  0.76122468  0.04341480    -0.30900
H846        H  0.60873743  0.74928593  0.08111458     0.16700
H847        H  0.75292753  0.89154871  0.10234137     0.16700
H848        H  0.62649442  0.90229269  0.92073929     0.16800
H849        H  0.77677320  0.90227496  0.94470061     0.16700
C850        C  0.67115711  0.82749455  0.44244834     0.30600
C851        C  0.66530331  0.82242863  0.54558901     0.30600
C852        C  0.64811930  0.84842801  0.46707901    -0.05600
C853        C  0.64781610  0.78240986  0.46391368    -0.06400
C854        C  0.71359369  0.84815874  0.46991047    -0.06200
C855        C  0.64483252  0.84632337  0.51961605    -0.05600
C856        C  0.64407036  0.77917550  0.51618349    -0.06400
C857        C  0.71156394  0.84554507  0.52244416    -0.06200
C858        C  0.62236383  0.86683874  0.53259010    -0.31600
N859        N  0.61248602  0.88044355  0.48961951     0.14900
C860        C  0.62806549  0.86937359  0.44956979    -0.31600
H861        H  0.62477367  0.87593600  0.41073463     0.16800
C862        C  0.62239221  0.73561465  0.52643407    -0.30600
N863        N  0.61407171  0.71364292  0.48217796     0.13600
C864        C  0.62963706  0.74190895  0.44380245    -0.30600
C865        C  0.75401877  0.86568201  0.53777175    -0.30900
N866        N  0.78009463  0.88033229  0.49609567     0.14100
H867        H  0.76514834  0.87008254  0.57613690     0.16700
C868        C  0.75574739  0.86999432  0.45477935    -0.30900
H869        H  0.76819406  0.87785451  0.41668825     0.16700
H870        H  0.62783510  0.73352688  0.40440266     0.16700
H871        H  0.61341336  0.87113399  0.57025534     0.16800
H872        H  0.61394460  0.72085965  0.56327407     0.16700
O873        O  0.95007862  0.53594588  0.04176116    -0.87700
C874        C  0.92255798  0.94454972  0.93387954     0.88300
Mg875      Mg  0.99893307  0.60239336  0.03204769     1.58100
O876        O  0.98017896  0.94085467  0.03943896    -0.87500
O877        O  0.92805677  0.98234777  0.09370886    -0.74800
C878        C  0.67416863  0.60135205  0.96719072     0.93300
O879        O  0.95609992  0.54923446  0.92185240    -0.74600
O880        O  0.65629197  0.62349800  0.95974866    -0.82100
Mg881      Mg  0.90476736  0.00785175  0.98155090     1.58000
C882        C  0.58901636  0.92670121  0.00103442     0.93300
O883        O  0.84591233  0.96598343  0.03143697    -0.80400
H884        H  0.98550099  0.93287498  0.11277584    -0.05700
C885        C  0.55663787  0.50499472  0.91503053     0.88200
O886        O  0.54755219  0.59322496  0.07727848    -0.74900
O887        O  0.92129280  0.95806799  0.97611146    -0.87700
O888        O  0.54832855  0.90702974  0.99605502    -0.80500
C889        C  0.90933036  0.83552409  0.99865049     0.93400
C890        C  0.82385908  0.92531590  0.03469189     0.93200
Mg891      Mg  0.59257371  0.51803169  0.01888676     1.58000
O892        O  0.65224554  0.56067780  0.97050087    -0.80400
O893        O  0.54138035  0.97612350  0.07831009    -0.74600
O894        O  0.89220481  0.85653628  0.01518654    -0.80500
O895        O  0.88679196  0.55923006  0.99155967    -0.82200
O896        O  0.60537128  0.66963955  0.98671555    -0.80500
C897        C  0.50140947  0.94884154  0.07813938     0.87700
O898        O  0.57567353  0.56761070  0.02463033    -0.87600
O899        O  0.54741912  0.99027141  0.95800854    -0.87700
O900        O  0.56996614  0.54429830  0.90662429    -0.74800
Mg901      Mg  0.91277138  0.92317833  0.04551461     1.58000
O902        O  0.94750030  0.85386834  0.98082180    -0.82200
H903        H  0.94496893  0.54274449  0.11575203    -0.05900
O904        O  0.51745521  0.58527934  0.96058359    -0.87400
H905        H  0.51193056  0.59207737  0.88695038    -0.05700
H906        H  0.59465172  0.58082940  0.09603115    -0.05900
C907        C  0.99610018  0.57659255  0.92181645     0.87600
C908        C  0.94113119  0.02153363  0.08489394     0.88200
C909        C  0.57396578  0.58081381  0.06692594     0.88300
H910        H  0.55290781  0.98399013  0.88395994    -0.05900
O911        O  0.94908417  0.93237269  0.92318860    -0.74900
Mg912      Mg  0.58496378  0.60314558  0.95546624     1.58000
H913        H  0.90141831  0.94412633  0.90507326    -0.05900
C914        C  0.90912815  0.59961315  0.99715083     0.93300
O915        O  0.54986840  0.67238417  0.02014783    -0.82100
C916        C  0.58830558  0.69072508  0.00325237     0.93300
O917        O  0.84156155  0.90299096  0.04196270    -0.82100
Mg918      Mg  0.49837049  0.92370632  0.96763452     1.58200
O919        O  0.94988543  0.61917010  0.00109117    -0.80500
O920        O  0.61093468  0.96691470  0.00833055    -0.82100
O921        O  0.98175370  0.54324843  0.46325320    -0.87700
C922        C  0.56982217  0.56361859  0.57165700     0.88300
Mg923      Mg  0.91496388  0.49405329  0.46972436     1.58100
O924        O  0.57568986  0.51208014  0.46053866    -0.87500
O925        O  0.53648346  0.56700482  0.41181200    -0.74800
C926        C  0.91229032  0.81545922  0.52099716     0.93300
O927        O  0.96515290  0.53006320  0.58337125    -0.74600
O928        O  0.89170345  0.83413415  0.53395816    -0.82100
Mg929      Mg  0.50826800  0.58426397  0.52854016     1.58000
C930        C  0.58866101  0.90214210  0.48661612     0.93300
O931        O  0.55239197  0.64666715  0.48699531    -0.80400
H932        H  0.58646959  0.51158160  0.38670811    -0.05700
C933        C  0.00859450  0.92919152  0.57816323     0.88200
O934        O  0.92445047  0.94752295  0.41959776    -0.74900
O935        O  0.55783034  0.56767051  0.52994194    -0.87700
O936        O  0.60803156  0.94228495  0.49488205    -0.80500
C937        C  0.67978331  0.57864872  0.50530359     0.93400
C938        C  0.59250048  0.66801067  0.47737098     0.93200
Mg939      Mg  0.99774126  0.89947100  0.46988959     1.58000
O940        O  0.95181932  0.83609114  0.50834272    -0.80400
O941        O  0.54173850  0.95396262  0.41568314    -0.74600
O942        O  0.65981772  0.59733287  0.49111954    -0.80500
O943        O  0.95730999  0.60296332  0.52297269    -0.82200
O944        O  0.84646983  0.88629176  0.50871859    -0.80500
C945        C  0.56914656  0.99354711  0.41977370     0.87700
O946        O  0.94818999  0.91619521  0.46861251    -0.87600
O947        O  0.52371697  0.94024880  0.53547403    -0.87700
O948        O  0.96952890  0.91691992  0.58748257    -0.74800
Mg949      Mg  0.59408159  0.57922421  0.46006079     1.58000
O950        O  0.66043713  0.53987920  0.52002929    -0.82200
H951        H  0.97674216  0.55238382  0.39015149    -0.05900
O952        O  0.93056239  0.97197099  0.53848547    -0.87400
H953        H  0.92055869  0.97246767  0.61251303    -0.05700
H954        H  0.93593475  0.90065651  0.39605801    -0.05900
C955        C  0.93756546  0.49052381  0.57930331     0.87600
C956        C  0.49720679  0.55429188  0.42064981     0.88200
C957        C  0.93583466  0.92009964  0.42705263     0.88300
H958        H  0.52924467  0.93095009  0.60835847    -0.05900
O959        O  0.58078495  0.53592938  0.57942477    -0.74900
Mg960      Mg  0.91221722  0.90489423  0.53922582     1.58000
H961        H  0.56965114  0.58311594  0.60256891    -0.05900
C962        C  0.91731917  0.58170110  0.51401498     0.93300
O963        O  0.84473533  0.94316406  0.47990461    -0.82100
C964        C  0.82593059  0.90439033  0.49475346     0.93300
O965        O  0.61418088  0.64999181  0.46655588    -0.82100
Mg966      Mg  0.59041333  0.98947881  0.52950270     1.58200
O967        O  0.89775875  0.54170851  0.50457671    -0.80500
O968        O  0.54870714  0.88058088  0.47726914    -0.82100
C969        C  0.67229595  0.84405741  0.69504762     0.19300
C970        C  0.70076453  0.87762995  0.72702046    -0.18800
C971        C  0.69575369  0.87471525  0.78007871    -0.11100
C972        C  0.66149656  0.83821308  0.80340353     0.21600
C973        C  0.63290452  0.80478141  0.77148378    -0.20400
C974        C  0.63828910  0.80739384  0.71852840    -0.11200
C975        C  0.65286663  0.83470627  0.85999007    -0.15400
C976        C  0.68313504  0.85504430  0.89605551    -0.29300
C977        C  0.67796078  0.84954003  0.63798988    -0.03500
C978        C  0.66038807  0.81710641  0.60363884    -0.40100
H979        H  0.72708382  0.90660298  0.71080353     0.12700
H980        H  0.71810523  0.90170252  0.80260279     0.12300
H981        H  0.60588989  0.77632640  0.78765557     0.11800
H982        H  0.61487013  0.78097128  0.69620043     0.12000
H983        H  0.62007826  0.81300389  0.87257630     0.14800
H984        H  0.71633562  0.87496158  0.88393844     0.13500
H985        H  0.69827994  0.88187830  0.62366656     0.11200
H986        H  0.64164069  0.78456487  0.61763975     0.13200
C987        C  0.65754811  0.81730404  0.19651878     0.19300
C988        C  0.62341128  0.82040371  0.21859187    -0.18800
C989        C  0.61757129  0.81793781  0.27067054    -0.11100
C990        C  0.64562865  0.81240937  0.30133391     0.21600
C991        C  0.67818920  0.80692577  0.27918585    -0.20400
C992        C  0.68401499  0.80933002  0.22719674    -0.11200
C993        C  0.64066405  0.81245535  0.35636516    -0.15400
C994        C  0.67510481  0.82997099  0.38612819    -0.29300
C995        C  0.66622582  0.82169945  0.14178338    -0.03500
C996        C  0.65356470  0.84288725  0.11190406    -0.40100
H997        H  0.60095415  0.82443752  0.19602156     0.12700
H998        H  0.59170963  0.82123981  0.28710422     0.12300
H999        H  0.69921037  0.80083732  0.30202240     0.11800
H1000       H  0.70977841  0.80575543  0.21096426     0.12000
H1001       H  0.60858633  0.79883033  0.37269640     0.14800
H1002       H  0.70697833  0.84566314  0.36917946     0.13500
H1003       H  0.68453034  0.80806107  0.12551776     0.11200
H1004       H  0.63717390  0.85841759  0.12793468     0.13200
C1005       C  0.84563133  0.65744996  0.80403485     0.19300
C1006       C  0.87775763  0.69652082  0.78281841    -0.18800
C1007       C  0.88484536  0.70039661  0.73089767    -0.11100
C1008       C  0.86008451  0.66549448  0.69948326     0.21600
C1009       C  0.83011112  0.62577441  0.72082316    -0.20400
C1010       C  0.82309351  0.62182152  0.77268661    -0.11200
C1011       C  0.86507782  0.67111514  0.64448438    -0.15400
C1012       C  0.83068206  0.65278661  0.61458258    -0.29300
C1013       C  0.83500905  0.65251709  0.85848624    -0.03500
C1014       C  0.84441190  0.68597585  0.88853679    -0.40100
H1015       H  0.89757001  0.72419718  0.80586447     0.12700
H1016       H  0.90878748  0.73098428  0.71512130     0.12300
H1017       H  0.81176199  0.59789279  0.69733423     0.11800
H1018       H  0.79916778  0.59112229  0.78822357     0.12000
H1019       H  0.89689720  0.69188827  0.62844386     0.14800
H1020       H  0.79890913  0.63425257  0.63148236     0.13500
H1021       H  0.81854852  0.62039429  0.87444106     0.11200
H1022       H  0.85873311  0.71780048  0.87257919     0.13200
C1023       C  0.83087463  0.67464991  0.30604189     0.19300
C1024       C  0.79821412  0.67177156  0.27455997    -0.18800
C1025       C  0.80253136  0.67355201  0.22142070    -0.11100
C1026       C  0.84019802  0.67903591  0.19742732     0.21600
C1027       C  0.87301724  0.68229166  0.22896939    -0.20400
C1028       C  0.86842060  0.67983728  0.28205306    -0.11200
C1029       C  0.84757408  0.68358578  0.14050033    -0.15400
C1030       C  0.81638539  0.67050884  0.10495350    -0.29300
C1031       C  0.82547169  0.67431520  0.36316565    -0.03500
C1032       C  0.84553851  0.66200383  0.39664261    -0.40100
H1033       H  0.76898699  0.66819750  0.29123813     0.12700
H1034       H  0.77662156  0.67171266  0.19942269     0.12300
H1035       H  0.90271957  0.68698041  0.21240085     0.11800
H1036       H  0.89494453  0.68321906  0.30418503     0.12000
H1037       H  0.88056393  0.69741992  0.12710920     0.14800
H1038       H  0.78312700  0.65485233  0.11751342     0.13500
H1039       H  0.80273135  0.68305417  0.37807730     0.11200
H1040       H  0.86632470  0.65097470  0.38142089     0.13200
loop_ 
_geom_bond_atom_site_label_1 
_geom_bond_atom_site_label_2 
_geom_bond_distance 
_geom_bond_site_symmetry_2 
_ccdc_geom_bond_type 
C1            C3   1.559       .  S
C1            C5   1.560       .  S
C1            C4   1.563       .  S
C1          C250   1.555       .  S
C2            C6   1.519       .  S
C2            C8   1.516       .  S
C2            C7   1.522       .  S
C2          C234   1.507       .  S
C3           C11   1.388       .  A
C3            C6   1.398   1_554  A
C4           C15   1.387       .  A
C4            C7   1.398   1_554  A
C5           C19   1.390       .  A
C5            C8   1.398   1_554  A
C6            C9   1.369       .  A
C7           C13   1.377       .  A
C8           C16   1.367       .  A
C9           N10   1.346       .  A
C9           H22   1.082       .  S
N10          C11   1.367   1_556  A
N10         C134   1.429       .  S
C11          H12   1.082       .  S
C13          N14   1.352       .  A
C13          H23   1.082       .  S
N14          C15   1.366   1_556  A
N14          C98   1.436       .  S
C15          H21   1.082       .  S
C16          N17   1.343       .  A
C16          H18   1.082       .  S
N17          C19   1.368   1_556  A
N17         C109   1.429       .  S
C19          H20   1.082       .  S
C24          C26   1.558       .  S
C24          C28   1.557       .  S
C24          C27   1.556       .  S
C24         C252   1.555       .  S
C25          C29   1.516       .  S
C25          C31   1.518       .  S
C25          C30   1.521       .  S
C25         C232   1.505       .  S
C26          C34   1.385       .  A
C26          C29   1.395       .  A
C27          C38   1.382       .  A
C27          C30   1.401       .  A
C28          C42   1.386       .  A
C28          C31   1.401       .  A
C29          C32   1.373       .  A
C30          C36   1.373       .  A
C31          C39   1.367       .  A
C32          N33   1.348       .  A
C32          H45   1.082       .  S
N33          C34   1.363       .  A
N33         C182   1.427       .  S
C34          H35   1.082       .  S
C36          N37   1.349       .  A
C36          H46   1.082       .  S
N37          C38   1.366       .  A
N37         C146   1.429       .  S
C38          H44   1.082       .  S
C39          N40   1.345       .  A
C39          H41   1.082       .  S
N40          C42   1.366       .  A
N40         C157   1.425       .  S
C42          H43   1.082       .  S
C47          C49   1.517       .  S
C47          C51   1.518       .  S
C47          C50   1.522       .  S
C47         C216   1.504       .  S
C48          C52   1.562       .  S
C48          C54   1.560       .  S
C48          C53   1.561       .  S
C48         C196   1.553       .  S
C49          C57   1.369       .  A
C49          C52   1.398   1_554  A
C50          C61   1.377       .  A
C50          C53   1.396   1_554  A
C51          C65   1.368       .  A
C51          C54   1.398   1_554  A
C52          C55   1.391       .  A
C53          C59   1.386       .  A
C54          C62   1.389       .  A
C55          N56   1.369       .  A
C55          H68   1.082       .  S
N56          C57   1.344   1_556  A
N56         C102   1.430   1_556  S
C57          H58   1.082       .  S
C59          N60   1.365   1_556  A
C59          H69   1.082       .  S
N60          C61   1.351       .  A
N60         C110   1.434       .  S
C61          H67   1.082       .  S
C62          N63   1.368   1_556  A
C62          H64   1.082       .  S
N63          C65   1.347       .  A
N63         C136   1.430       .  S
C65          H66   1.083       .  S
C70          C72   1.518       .  S
C70          C74   1.516       .  S
C70          C73   1.517       .  S
C70         C214   1.502       .  S
C71          C75   1.558       .  S
C71          C77   1.558       .  S
C71          C76   1.560       .  S
C71         C198   1.554       .  S
C72          C80   1.370       .  A
C72          C75   1.400       .  A
C73          C84   1.374       .  A
C73          C76   1.395       .  A
C74          C88   1.367       .  A
C74          C77   1.399       .  A
C75          C78   1.385       .  A
C76          C82   1.385       .  A
C77          C85   1.387       .  A
C78          N79   1.367       .  A
C78          H91   1.082       .  S
N79          C80   1.347       .  A
N79         C150   1.428       .  S
C80          H81   1.082       .  S
C82          N83   1.365       .  A
C82          H92   1.082       .  S
N83          C84   1.348       .  A
N83         C158   1.430       .  S
C84          H90   1.083       .  S
C85          N86   1.367       .  A
C85          H87   1.082       .  S
N86          C88   1.344       .  A
N86         C184   1.426       .  S
C88          H89   1.082       .  S
O93         Mg95   2.158       .  S
O93        Mg361   2.153   1_554  S
O93         C388   1.232       .  S
C94         H133   1.082       .  S
C94         O107   1.232       .  S
C94         O131   1.266       .  A
Mg95        O644   2.193   1_554  S
Mg95        O139   2.300       .  S
Mg95        O655   2.274       .  S
Mg95        O626   2.295       .  S
O96        Mg121   2.181       .  S
O96        Mg658   2.196   1_554  S
O96         C637   1.234       .  S
O97         C128   1.268       .  A
O97        Mg121   2.305       .  S
C98         O100   1.272       .  A
C98         O112   1.272       .  A
O99         C127   1.271       .  A
O99        Mg361   2.310       .  S
O100       Mg132   2.292       .  S
Mg101       O107   2.164       .  S
Mg101       O353   2.153   1_556  S
Mg101       O103   2.292   1_556  S
Mg101       O359   2.310       .  S
Mg101       O375   2.267       .  S
C102        O140   1.270       .  A
C102        O108   1.274   1_554  A
O103        C110   1.272       .  A
H104        C637   1.081       .  S
C105        H390   1.081   1_545  S
C105        O379   1.232   1_545  S
C105        O120   1.268       .  A
O106        C129   1.267       .  A
O106       Mg615   2.295   1_455  S
O107       Mg121   2.170   1_556  S
O108       Mg138   2.304   1_455  S
C109        O122   1.273       .  A
C109        O114   1.270   1_556  A
C110        O137   1.272       .  A
Mg111       O118   2.167       .  S
Mg111       O379   2.162   1_544  S
Mg111       O112   2.293   1_554  S
Mg111       O373   2.307   1_545  S
Mg111       O400   2.269   1_545  S
O113        C117   1.270       .  A
O113       Mg371   2.307       .  S
O114       Mg121   2.277       .  S
O115        C134   1.270       .  A
O115       Mg361   2.267       .  S
O116        C136   1.270   1_556  A
O116       Mg132   2.282       .  S
C117        H624   1.081   1_455  S
C117        O616   1.234   1_455  S
O118       Mg132   2.173   1_554  S
O118        C129   1.232       .  S
O119       Mg138   2.162   1_455  S
O119       Mg371   2.162   1_556  S
O119        C365   1.232       .  S
O120       Mg132   2.307       .  S
Mg121       O137   2.289       .  S
O122       Mg658   2.274       .  S
H123        C388   1.081       .  S
O124       Mg132   2.181       .  S
O124       Mg615   2.194   1_456  S
O124        C647   1.235   1_455  S
H125        C647   1.081   1_455  S
H126        C129   1.081       .  S
C127        H645   1.081       .  S
C127        O644   1.235       .  S
C128        H383   1.081       .  S
C128        O353   1.232       .  S
H130        C365   1.081       .  S
O131       Mg658   2.295       .  S
C134        O139   1.273   1_556  A
O135        C136   1.272       .  A
O135       Mg615   2.274   1_455  S
Mg138       O616   2.196   1_556  S
Mg138       O642   2.274       .  S
Mg138       O651   2.295       .  S
O140       Mg371   2.269       .  S
O141       Mg143   2.157   1_545  S
O141       Mg669   2.169       .  S
O141        C696   1.232       .  S
C142        H181   1.081       .  S
C142        O155   1.232       .  S
C142        O179   1.266       .  A
Mg143       O432   2.189       .  S
Mg143       O187   2.291   1_565  S
Mg143       O443   2.268       .  S
Mg143       O414   2.294       .  S
O144       Mg169   2.168       .  S
O144       Mg446   2.189   1_545  S
O144        C425   1.232   1_545  S
O145        C176   1.267   1_455  A
O145       Mg169   2.299       .  S
C146        O148   1.273       .  A
C146        O160   1.271       .  A
O147        C175   1.268   1_545  A
O147       Mg669   2.297       .  S
O148       Mg180   2.278       .  S
Mg149       O155   2.152       .  S
Mg149       O661   2.169   1_455  S
Mg149       O151   2.279       .  S
Mg149       O667   2.297   1_455  S
Mg149       O683   2.260   1_455  S
C150        O188   1.271       .  A
C150        O156   1.271       .  A
O151        C158   1.271       .  A
H152        C425   1.081   1_545  S
C153        H698   1.081       .  S
C153        O687   1.231       .  S
C153        O168   1.265       .  A
O154        C177   1.266       .  A
O154       Mg403   2.294       .  S
O155       Mg169   2.175       .  S
O156       Mg186   2.284       .  S
C157        O170   1.270       .  A
C157        O162   1.271       .  A
C158        O185   1.273       .  A
Mg159       O166   2.155       .  S
Mg159       O687   2.170       .  S
Mg159       O160   2.277       .  S
Mg159       O681   2.300       .  S
Mg159       O708   2.270       .  S
O161        C165   1.267       .  A
O161       Mg679   2.300   1_455  S
O162       Mg169   2.280       .  S
O163        C182   1.270       .  A
O163       Mg669   2.260       .  S
O164        C184   1.269       .  A
O164       Mg180   2.271       .  S
C165        H412   1.081       .  S
C165        O404   1.232       .  S
O166       Mg180   2.187       .  S
O166        C177   1.232       .  S
O167       Mg186   2.154       .  S
O167       Mg679   2.170   1_455  S
O167        C673   1.231       .  S
O168       Mg180   2.292       .  S
Mg169       O185   2.284       .  S
O170       Mg446   2.257   1_545  S
H171        C696   1.081       .  S
O172       Mg180   2.166       .  S
O172       Mg403   2.189       .  S
O172        C435   1.233       .  S
H173        C435   1.081       .  S
H174        C177   1.081       .  S
C175        H433   1.081       .  S
C175        O432   1.233       .  S
C176        H691   1.081       .  S
C176        O661   1.232       .  S
H178        C673   1.081       .  S
O179       Mg446   2.291   1_545  S
C182        O187   1.272       .  A
O183        C184   1.272       .  A
O183       Mg403   2.268       .  S
Mg186       O404   2.189       .  S
Mg186       O430   2.257       .  S
Mg186       O439   2.291       .  S
O188       Mg679   2.270   1_455  S
C189        C190   1.414       .  A
C189        C194   1.413       .  A
C189        C197   1.529       .  S
C190        C191   1.418       .  A
C190        H199   1.083       .  S
C191        C192   1.412       .  A
C191        H200   1.082       .  S
C192        C193   1.412       .  A
C192        C195   1.526       .  S
C193        C194   1.416       .  A
C193        H201   1.083       .  S
C194        H202   1.081       .  S
C195        H203   1.086       .  S
C195        C196   1.363       .  D
C196        H204   1.084       .  S
C197        H205   1.086       .  S
C197        C198   1.364       .  D
C198        H206   1.083       .  S
C207        C208   1.410       .  A
C207        C212   1.399       .  A
C207        C215   1.477       .  S
C208        C209   1.395       .  A
C208        H217   1.081       .  S
C209        C210   1.398       .  A
C209        H218   1.084       .  S
C210        C211   1.406       .  A
C210        C213   1.472       .  S
C211        C212   1.392       .  A
C211        H219   1.083       .  S
C212        H220   1.084       .  S
C213        H221   1.087       .  S
C213        C214   1.339       .  D
C214        H222   1.084       .  S
C215        H223   1.088       .  S
C215        C216   1.339       .  D
C216        H224   1.082       .  S
C225        C226   1.412       .  A
C225        C230   1.400       .  A
C225        C233   1.482       .  S
C226        C227   1.396       .  A
C226        H235   1.081       .  S
C227        C228   1.398       .  A
C227        H236   1.084       .  S
C228        C229   1.406       .  A
C228        C231   1.474       .  S
C229        C230   1.394       .  A
C229        H237   1.083       .  S
C230        H238   1.084       .  S
C231        H239   1.087       .  S
C231        C232   1.341       .  D
C232        H240   1.085       .  S
C233        H241   1.087       .  S
C233        C234   1.340       .  D
C234        H242   1.081       .  S
C243        C244   1.413       .  A
C243        C248   1.412       .  A
C243        C251   1.528       .  S
C244        C245   1.418       .  A
C244        H253   1.083       .  S
C245        C246   1.413       .  A
C245        H254   1.081       .  S
C246        C247   1.414       .  A
C246        C249   1.529       .  S
C247        C248   1.417       .  A
C247        H255   1.083       .  S
C248        H256   1.082       .  S
C249        H257   1.086       .  S
C249        C250   1.366       .  D
C250        H258   1.084       .  S
C251        H259   1.086       .  S
C251        C252   1.363       .  D
C252        H260   1.084       .  S
C261        C263   1.559       .  S
C261        C265   1.560       .  S
C261        C264   1.563       .  S
C261        C510   1.555       .  S
C262        C266   1.519       .  S
C262        C268   1.516       .  S
C262        C267   1.522       .  S
C262        C494   1.507       .  S
C263        C271   1.388       .  A
C263        C266   1.398   1_554  A
C264        C275   1.387       .  A
C264        C267   1.398   1_554  A
C265        C279   1.390       .  A
C265        C268   1.398   1_554  A
C266        C269   1.369       .  A
C267        C273   1.377       .  A
C268        C276   1.367       .  A
C269        N270   1.346       .  A
C269        H282   1.082       .  S
N270        C271   1.367   1_556  A
N270        C394   1.429       .  S
C271        H272   1.082       .  S
C273        N274   1.352       .  A
C273        H283   1.082       .  S
N274        C275   1.366   1_556  A
N274        C358   1.436       .  S
C275        H281   1.082       .  S
C276        N277   1.343       .  A
C276        H278   1.082       .  S
N277        C279   1.368   1_556  A
N277        C369   1.429       .  S
C279        H280   1.082       .  S
C284        C286   1.558       .  S
C284        C288   1.557       .  S
C284        C287   1.556       .  S
C284        C512   1.555       .  S
C285        C289   1.516       .  S
C285        C291   1.518       .  S
C285        C290   1.521       .  S
C285        C492   1.505       .  S
C286        C294   1.385       .  A
C286        C289   1.395       .  A
C287        C298   1.382       .  A
C287        C290   1.401       .  A
C288        C302   1.386       .  A
C288        C291   1.401       .  A
C289        C292   1.373       .  A
C290        C296   1.373       .  A
C291        C299   1.367       .  A
C292        N293   1.348       .  A
C292        H305   1.082       .  S
N293        C294   1.363       .  A
N293        C442   1.427       .  S
C294        H295   1.082       .  S
C296        N297   1.349       .  A
C296        H306   1.082       .  S
N297        C298   1.366       .  A
N297        C406   1.429       .  S
C298        H304   1.082       .  S
C299        N300   1.345       .  A
C299        H301   1.082       .  S
N300        C302   1.366       .  A
N300        C417   1.425       .  S
C302        H303   1.082       .  S
C307        C309   1.517       .  S
C307        C311   1.518       .  S
C307        C310   1.522       .  S
C307        C476   1.504       .  S
C308        C312   1.562       .  S
C308        C314   1.560       .  S
C308        C313   1.561       .  S
C308        C456   1.553       .  S
C309        C317   1.369       .  A
C309        C312   1.398   1_554  A
C310        C321   1.377       .  A
C310        C313   1.396   1_554  A
C311        C325   1.368       .  A
C311        C314   1.398   1_554  A
C312        C315   1.391       .  A
C313        C319   1.386       .  A
C314        C322   1.389       .  A
C315        N316   1.369       .  A
C315        H328   1.082       .  S
N316        C317   1.344   1_556  A
N316        C362   1.430   1_556  S
C317        H318   1.082       .  S
C319        N320   1.365   1_556  A
C319        H329   1.082       .  S
N320        C321   1.351       .  A
N320        C370   1.434       .  S
C321        H327   1.082       .  S
C322        N323   1.368   1_556  A
C322        H324   1.082       .  S
N323        C325   1.347       .  A
N323        C396   1.430       .  S
C325        H326   1.083       .  S
C330        C332   1.518       .  S
C330        C334   1.516       .  S
C330        C333   1.517       .  S
C330        C474   1.502       .  S
C331        C335   1.558       .  S
C331        C337   1.558       .  S
C331        C336   1.560       .  S
C331        C458   1.554       .  S
C332        C340   1.370       .  A
C332        C335   1.400       .  A
C333        C344   1.374       .  A
C333        C336   1.395       .  A
C334        C348   1.367       .  A
C334        C337   1.399       .  A
C335        C338   1.385       .  A
C336        C342   1.385       .  A
C337        C345   1.387       .  A
C338        N339   1.367       .  A
C338        H351   1.082       .  S
N339        C340   1.347       .  A
N339        C410   1.428       .  S
C340        H341   1.082       .  S
C342        N343   1.365       .  A
C342        H352   1.082       .  S
N343        C344   1.348       .  A
N343        C418   1.430       .  S
C344        H350   1.083       .  S
C345        N346   1.367       .  A
C345        H347   1.082       .  S
N346        C348   1.344       .  A
N346        C444   1.426       .  S
C348        H349   1.082       .  S
O353       Mg355   2.158       .  S
C354        H393   1.082       .  S
C354        O367   1.232       .  S
C354        O391   1.266       .  A
Mg355       O904   2.194   1_554  S
Mg355       O399   2.300       .  S
Mg355       O915   2.274       .  S
Mg355       O886   2.295       .  S
O356       Mg918   2.196   1_554  S
O356       Mg381   2.181       .  S
O356        C897   1.234       .  S
O357        C388   1.268   1_565  A
O357       Mg381   2.305       .  S
C358        O360   1.272       .  A
C358        O372   1.272       .  A
O359        C387   1.271       .  A
O360       Mg392   2.292       .  S
Mg361       O367   2.164   1_545  S
Mg361       O363   2.292   1_546  S
C362        O400   1.270       .  A
C362        O368   1.274   1_554  A
O363        C370   1.272       .  A
H364        C897   1.081       .  S
C365        O380   1.268       .  A
O366        C389   1.267       .  A
O366       Mg875   2.295   1_455  S
O367       Mg381   2.170   1_556  S
O368       Mg398   2.304   1_455  S
C369        O382   1.273       .  A
C369        O374   1.270   1_556  A
C370        O397   1.272       .  A
Mg371       O378   2.167       .  S
Mg371       O372   2.293   1_554  S
O373        C377   1.270       .  A
O374       Mg381   2.277       .  S
O375        C394   1.270       .  A
O376        C396   1.270   1_556  A
O376       Mg392   2.282       .  S
C377        H884   1.081   1_455  S
C377        O876   1.234   1_455  S
O378       Mg392   2.173   1_554  S
O378        C389   1.232       .  S
O379       Mg398   2.162   1_455  S
O380       Mg392   2.307       .  S
Mg381       O397   2.289       .  S
O382       Mg918   2.274       .  S
O384       Mg875   2.194   1_456  S
O384       Mg392   2.181       .  S
O384        C907   1.235   1_455  S
H385        C907   1.081   1_455  S
H386        C389   1.081       .  S
C387        H905   1.081       .  S
C387        O904   1.235       .  S
O391       Mg918   2.295       .  S
C394        O399   1.273   1_556  A
O395        C396   1.272       .  A
O395       Mg875   2.274   1_455  S
Mg398       O876   2.196   1_556  S
Mg398       O902   2.274       .  S
Mg398       O911   2.295       .  S
O401       Mg403   2.157       .  S
O401       Mg929   2.169       .  S
O401        C956   1.232       .  S
C402        H441   1.081       .  S
C402        O415   1.232       .  S
C402        O439   1.266       .  A
Mg403       O447   2.291       .  S
O404       Mg429   2.168       .  S
O405        C436   1.267   1_455  A
O405       Mg429   2.299       .  S
C406        O408   1.273       .  A
C406        O420   1.271       .  A
O407        C435   1.268       .  A
O407       Mg929   2.297       .  S
O408       Mg440   2.278       .  S
Mg409       O921   2.169   1_455  S
Mg409       O415   2.152       .  S
Mg409       O927   2.297   1_455  S
Mg409       O943   2.260   1_455  S
Mg409       O411   2.279       .  S
C410        O448   1.271       .  A
C410        O416   1.271       .  A
O411        C418   1.271       .  A
C413        H958   1.081       .  S
C413        O947   1.231       .  S
C413        O428   1.265       .  A
O414        C437   1.266       .  A
O415       Mg429   2.175       .  S
O416       Mg446   2.284       .  S
C417        O430   1.270       .  A
C417        O422   1.271       .  A
C418        O445   1.273       .  A
Mg419       O426   2.155       .  S
Mg419       O947   2.170       .  S
Mg419       O420   2.277       .  S
Mg419       O941   2.300       .  S
Mg419       O968   2.270       .  S
O421        C425   1.267       .  A
O421       Mg939   2.300   1_455  S
O422       Mg429   2.280       .  S
O423        C442   1.270       .  A
O423       Mg929   2.260       .  S
O424        C444   1.269       .  A
O424       Mg440   2.271       .  S
O426       Mg440   2.187       .  S
O426        C437   1.232       .  S
O427       Mg939   2.170   1_455  S
O427       Mg446   2.154       .  S
O427        C933   1.231       .  S
O428       Mg440   2.292       .  S
Mg429       O445   2.284       .  S
H431        C956   1.081       .  S
O432       Mg440   2.166       .  S
H434        C437   1.081       .  S
C436        H951   1.081       .  S
C436        O921   1.232       .  S
H438        C933   1.081       .  S
C442        O447   1.272       .  A
O443        C444   1.272       .  A
O448       Mg939   2.270   1_455  S
C449        C450   1.414       .  A
C449        C454   1.413       .  A
C449        C457   1.529       .  S
C450        C451   1.418       .  A
C450        H459   1.083       .  S
C451        C452   1.412       .  A
C451        H460   1.082       .  S
C452        C453   1.412       .  A
C452        C455   1.526       .  S
C453        C454   1.416       .  A
C453        H461   1.083       .  S
C454        H462   1.081       .  S
C455        H463   1.086       .  S
C455        C456   1.363       .  D
C456        H464   1.084       .  S
C457        H465   1.086       .  S
C457        C458   1.364       .  D
C458        H466   1.083       .  S
C467        C468   1.410       .  A
C467        C472   1.399       .  A
C467        C475   1.477       .  S
C468        C469   1.395       .  A
C468        H477   1.081       .  S
C469        C470   1.398       .  A
C469        H478   1.084       .  S
C470        C471   1.406       .  A
C470        C473   1.472       .  S
C471        C472   1.392       .  A
C471        H479   1.083       .  S
C472        H480   1.084       .  S
C473        H481   1.087       .  S
C473        C474   1.339       .  D
C474        H482   1.084       .  S
C475        H483   1.088       .  S
C475        C476   1.339       .  D
C476        H484   1.082       .  S
C485        C486   1.412       .  A
C485        C490   1.400       .  A
C485        C493   1.482       .  S
C486        C487   1.396       .  A
C486        H495   1.081       .  S
C487        C488   1.398       .  A
C487        H496   1.084       .  S
C488        C489   1.406       .  A
C488        C491   1.474       .  S
C489        C490   1.394       .  A
C489        H497   1.083       .  S
C490        H498   1.084       .  S
C491        H499   1.087       .  S
C491        C492   1.341       .  D
C492        H500   1.085       .  S
C493        H501   1.087       .  S
C493        C494   1.340       .  D
C494        H502   1.081       .  S
C503        C504   1.413       .  A
C503        C508   1.412       .  A
C503        C511   1.528       .  S
C504        C505   1.418       .  A
C504        H513   1.083       .  S
C505        C506   1.413       .  A
C505        H514   1.081       .  S
C506        C507   1.414       .  A
C506        C509   1.529       .  S
C507        C508   1.417       .  A
C507        H515   1.083       .  S
C508        H516   1.082       .  S
C509        H517   1.086       .  S
C509        C510   1.366       .  D
C510        H518   1.084       .  S
C511        H519   1.086       .  S
C511        C512   1.363       .  D
C512        H520   1.084       .  S
C521        C523   1.559       .  S
C521        C525   1.560       .  S
C521        C524   1.563       .  S
C521        C770   1.555       .  S
C522        C526   1.519       .  S
C522        C528   1.516       .  S
C522        C527   1.522       .  S
C522        C754   1.507       .  S
C523        C531   1.388       .  A
C523        C526   1.398   1_554  A
C524        C535   1.387       .  A
C524        C527   1.398   1_554  A
C525        C539   1.390       .  A
C525        C528   1.398   1_554  A
C526        C529   1.369       .  A
C527        C533   1.377       .  A
C528        C536   1.367       .  A
C529        N530   1.346       .  A
C529        H542   1.082       .  S
N530        C531   1.367   1_556  A
N530        C654   1.429       .  S
C531        H532   1.082       .  S
C533        N534   1.352       .  A
C533        H543   1.082       .  S
N534        C535   1.366   1_556  A
N534        C618   1.436       .  S
C535        H541   1.082       .  S
C536        N537   1.343       .  A
C536        H538   1.082       .  S
N537        C539   1.368   1_556  A
N537        C629   1.429       .  S
C539        H540   1.082       .  S
C544        C546   1.558       .  S
C544        C548   1.557       .  S
C544        C547   1.556       .  S
C544        C772   1.555       .  S
C545        C549   1.516       .  S
C545        C551   1.518       .  S
C545        C550   1.521       .  S
C545        C752   1.505       .  S
C546        C554   1.385       .  A
C546        C549   1.395       .  A
C547        C558   1.382       .  A
C547        C550   1.401       .  A
C548        C562   1.386       .  A
C548        C551   1.401       .  A
C549        C552   1.373       .  A
C550        C556   1.373       .  A
C551        C559   1.367       .  A
C552        N553   1.348       .  A
C552        H565   1.082       .  S
N553        C554   1.363       .  A
N553        C702   1.427       .  S
C554        H555   1.082       .  S
C556        N557   1.349       .  A
C556        H566   1.082       .  S
N557        C558   1.366       .  A
N557        C666   1.429       .  S
C558        H564   1.082       .  S
C559        N560   1.345       .  A
C559        H561   1.082       .  S
N560        C562   1.366       .  A
N560        C677   1.425       .  S
C562        H563   1.082       .  S
C567        C569   1.517       .  S
C567        C571   1.518       .  S
C567        C570   1.522       .  S
C567        C736   1.504       .  S
C568        C572   1.562       .  S
C568        C574   1.560       .  S
C568        C573   1.561       .  S
C568        C716   1.553       .  S
C569        C577   1.369       .  A
C569        C572   1.398   1_554  A
C570        C581   1.377       .  A
C570        C573   1.396   1_554  A
C571        C585   1.368       .  A
C571        C574   1.398   1_554  A
C572        C575   1.391       .  A
C573        C579   1.386       .  A
C574        C582   1.389       .  A
C575        N576   1.369       .  A
C575        H588   1.082       .  S
N576        C577   1.344   1_556  A
N576        C622   1.430   1_556  S
C577        H578   1.082       .  S
C579        N580   1.365   1_556  A
C579        H589   1.082       .  S
N580        C581   1.351       .  A
N580        C630   1.434       .  S
C581        H587   1.082       .  S
C582        N583   1.368   1_556  A
C582        H584   1.082       .  S
N583        C585   1.347       .  A
N583        C656   1.430       .  S
C585        H586   1.083       .  S
C590        C592   1.518       .  S
C590        C594   1.516       .  S
C590        C593   1.517       .  S
C590        C734   1.502       .  S
C591        C595   1.558       .  S
C591        C597   1.558       .  S
C591        C596   1.560       .  S
C591        C718   1.554       .  S
C592        C600   1.370       .  A
C592        C595   1.400       .  A
C593        C604   1.374       .  A
C593        C596   1.395       .  A
C594        C608   1.367       .  A
C594        C597   1.399       .  A
C595        C598   1.385       .  A
C596        C602   1.385       .  A
C597        C605   1.387       .  A
C598        N599   1.367       .  A
C598        H611   1.082       .  S
N599        C600   1.347       .  A
N599        C670   1.428       .  S
C600        H601   1.082       .  S
C602        N603   1.365       .  A
C602        H612   1.082       .  S
N603        C604   1.348       .  A
N603        C678   1.430       .  S
C604        H610   1.083       .  S
C605        N606   1.367       .  A
C605        H607   1.082       .  S
N606        C608   1.344       .  A
N606        C704   1.426       .  S
C608        H609   1.082       .  S
O613       Mg615   2.158       .  S
O613       Mg881   2.153   1_554  S
O613        C908   1.232       .  S
C614        H653   1.082       .  S
C614        O627   1.232       .  S
C614        O651   1.266       .  A
Mg615       O659   2.300       .  S
O616       Mg641   2.181       .  S
O617        C648   1.268       .  A
O617       Mg641   2.305       .  S
C618        O620   1.272       .  A
C618        O632   1.272       .  A
O619        C647   1.271       .  A
O619       Mg881   2.310       .  S
O620       Mg652   2.292       .  S
Mg621       O873   2.153   1_556  S
Mg621       O627   2.164       .  S
Mg621       O879   2.310       .  S
Mg621       O895   2.267       .  S
Mg621       O623   2.292   1_556  S
C622        O660   1.270       .  A
C622        O628   1.274   1_554  A
O623        C630   1.272       .  A
C625        H910   1.081   1_545  S
C625        O899   1.232   1_545  S
C625        O640   1.268       .  A
O626        C649   1.267       .  A
O627       Mg641   2.170   1_556  S
O628       Mg658   2.304       .  S
C629        O642   1.273       .  A
C629        O634   1.270   1_556  A
C630        O657   1.272       .  A
Mg631       O638   2.167       .  S
Mg631       O899   2.162   1_544  S
Mg631       O632   2.293   1_554  S
Mg631       O893   2.307   1_545  S
Mg631       O920   2.269   1_545  S
O633        C637   1.270       .  A
O633       Mg891   2.307       .  S
O634       Mg641   2.277       .  S
O635        C654   1.270       .  A
O635       Mg881   2.267       .  S
O636        C656   1.270   1_556  A
O636       Mg652   2.282       .  S
O638       Mg652   2.173   1_554  S
O638        C649   1.232       .  S
O639       Mg891   2.162   1_556  S
O639       Mg658   2.162       .  S
O639        C885   1.232       .  S
O640       Mg652   2.307       .  S
Mg641       O657   2.289       .  S
H643        C908   1.081       .  S
O644       Mg652   2.181       .  S
H646        C649   1.081       .  S
C648        H903   1.081       .  S
C648        O873   1.232       .  S
H650        C885   1.081       .  S
C654        O659   1.273   1_556  A
O655        C656   1.272       .  A
O660       Mg891   2.269       .  S
O661       Mg663   2.157   1_545  S
C662        H701   1.081       .  S
C662        O675   1.232       .  S
C662        O699   1.266       .  A
Mg663       O952   2.189       .  S
Mg663       O707   2.291   1_565  S
Mg663       O963   2.268       .  S
Mg663       O934   2.294       .  S
O664       Mg966   2.189   1_545  S
O664       Mg689   2.168       .  S
O664        C945   1.232   1_545  S
O665        C696   1.267       .  A
O665       Mg689   2.299       .  S
C666        O668   1.273       .  A
C666        O680   1.271       .  A
O667        C695   1.268   1_545  A
O668       Mg700   2.278       .  S
Mg669       O675   2.152       .  S
Mg669       O671   2.279       .  S
C670        O708   1.271       .  A
C670        O676   1.271       .  A
O671        C678   1.271       .  A
H672        C945   1.081   1_545  S
C673        O688   1.265   1_455  A
O674        C697   1.266       .  A
O674       Mg923   2.294       .  S
O675       Mg689   2.175       .  S
O676       Mg706   2.284       .  S
C677        O690   1.270       .  A
C677        O682   1.271       .  A
C678        O705   1.273       .  A
Mg679       O686   2.155       .  S
Mg679       O680   2.277       .  S
O681        C685   1.267       .  A
O682       Mg689   2.280       .  S
O683        C702   1.270       .  A
O684        C704   1.269       .  A
O684       Mg700   2.271       .  S
C685        H932   1.081       .  S
C685        O924   1.232       .  S
O686       Mg700   2.187       .  S
O686        C697   1.232       .  S
O687       Mg706   2.154       .  S
O688       Mg700   2.292       .  S
Mg689       O705   2.284       .  S
O690       Mg966   2.257   1_545  S
O692       Mg923   2.189       .  S
O692       Mg700   2.166       .  S
O692        C955   1.233       .  S
H693        C955   1.081       .  S
H694        C697   1.081       .  S
C695        H953   1.081       .  S
C695        O952   1.233       .  S
O699       Mg966   2.291   1_545  S
C702        O707   1.272       .  A
O703        C704   1.272       .  A
O703       Mg923   2.268       .  S
Mg706       O924   2.189       .  S
Mg706       O950   2.257       .  S
Mg706       O959   2.291       .  S
C709        C710   1.414       .  A
C709        C714   1.413       .  A
C709        C717   1.529       .  S
C710        C711   1.418       .  A
C710        H719   1.083       .  S
C711        C712   1.412       .  A
C711        H720   1.082       .  S
C712        C713   1.412       .  A
C712        C715   1.526       .  S
C713        C714   1.416       .  A
C713        H721   1.083       .  S
C714        H722   1.081       .  S
C715        H723   1.086       .  S
C715        C716   1.363       .  D
C716        H724   1.084       .  S
C717        H725   1.086       .  S
C717        C718   1.364       .  D
C718        H726   1.083       .  S
C727        C728   1.410       .  A
C727        C732   1.399       .  A
C727        C735   1.477       .  S
C728        C729   1.395       .  A
C728        H737   1.081       .  S
C729        C730   1.398       .  A
C729        H738   1.084       .  S
C730        C731   1.406       .  A
C730        C733   1.472       .  S
C731        C732   1.392       .  A
C731        H739   1.083       .  S
C732        H740   1.084       .  S
C733        H741   1.087       .  S
C733        C734   1.339       .  D
C734        H742   1.084       .  S
C735        H743   1.088       .  S
C735        C736   1.339       .  D
C736        H744   1.082       .  S
C745        C746   1.412       .  A
C745        C750   1.400       .  A
C745        C753   1.482       .  S
C746        C747   1.396       .  A
C746        H755   1.081       .  S
C747        C748   1.398       .  A
C747        H756   1.084       .  S
C748        C749   1.406       .  A
C748        C751   1.474       .  S
C749        C750   1.394       .  A
C749        H757   1.083       .  S
C750        H758   1.084       .  S
C751        H759   1.087       .  S
C751        C752   1.341       .  D
C752        H760   1.085       .  S
C753        H761   1.087       .  S
C753        C754   1.340       .  D
C754        H762   1.081       .  S
C763        C764   1.413       .  A
C763        C768   1.412       .  A
C763        C771   1.528       .  S
C764        C765   1.418       .  A
C764        H773   1.083       .  S
C765        C766   1.413       .  A
C765        H774   1.081       .  S
C766        C767   1.414       .  A
C766        C769   1.529       .  S
C767        C768   1.417       .  A
C767        H775   1.083       .  S
C768        H776   1.082       .  S
C769        H777   1.086       .  S
C769        C770   1.366       .  D
C770        H778   1.084       .  S
C771        H779   1.086       .  S
C771        C772   1.363       .  D
C772        H780   1.084       .  S
C781        C783   1.559       .  S
C781        C785   1.560       .  S
C781        C784   1.563       .  S
C781       C1030   1.555       .  S
C782        C786   1.519       .  S
C782        C788   1.516       .  S
C782        C787   1.522       .  S
C782       C1014   1.507       .  S
C783        C791   1.388       .  A
C783        C786   1.398   1_554  A
C784        C795   1.387       .  A
C784        C787   1.398   1_554  A
C785        C799   1.390       .  A
C785        C788   1.398   1_554  A
C786        C789   1.369       .  A
C787        C793   1.377       .  A
C788        C796   1.367       .  A
C789        N790   1.346       .  A
C789        H802   1.082       .  S
N790        C791   1.367   1_556  A
N790        C914   1.429       .  S
C791        H792   1.082       .  S
C793        N794   1.352       .  A
C793        H803   1.082       .  S
N794        C795   1.366   1_556  A
N794        C878   1.436       .  S
C795        H801   1.082       .  S
C796        N797   1.343       .  A
C796        H798   1.082       .  S
N797        C799   1.368   1_556  A
N797        C889   1.429       .  S
C799        H800   1.082       .  S
C804        C806   1.558       .  S
C804        C808   1.557       .  S
C804        C807   1.556       .  S
C804       C1032   1.555       .  S
C805        C809   1.516       .  S
C805        C811   1.518       .  S
C805        C810   1.521       .  S
C805       C1012   1.505       .  S
C806        C814   1.385       .  A
C806        C809   1.395       .  A
C807        C818   1.382       .  A
C807        C810   1.401       .  A
C808        C822   1.386       .  A
C808        C811   1.401       .  A
C809        C812   1.373       .  A
C810        C816   1.373       .  A
C811        C819   1.367       .  A
C812        N813   1.348       .  A
C812        H825   1.082       .  S
N813        C814   1.363       .  A
N813        C962   1.427       .  S
C814        H815   1.082       .  S
C816        N817   1.349       .  A
C816        H826   1.082       .  S
N817        C818   1.366       .  A
N817        C926   1.429       .  S
C818        H824   1.082       .  S
C819        N820   1.345       .  A
C819        H821   1.082       .  S
N820        C822   1.366       .  A
N820        C937   1.425       .  S
C822        H823   1.082       .  S
C827        C829   1.517       .  S
C827        C831   1.518       .  S
C827        C830   1.522       .  S
C827        C996   1.504       .  S
C828        C832   1.562       .  S
C828        C834   1.560       .  S
C828        C833   1.561       .  S
C828        C976   1.553       .  S
C829        C837   1.369       .  A
C829        C832   1.398   1_554  A
C830        C841   1.377       .  A
C830        C833   1.396   1_554  A
C831        C845   1.368       .  A
C831        C834   1.398   1_554  A
C832        C835   1.391       .  A
C833        C839   1.386       .  A
C834        C842   1.389       .  A
C835        N836   1.369       .  A
C835        H848   1.082       .  S
N836        C837   1.344   1_556  A
N836        C882   1.430   1_556  S
C837        H838   1.082       .  S
C839        N840   1.365   1_556  A
C839        H849   1.082       .  S
N840        C841   1.351       .  A
N840        C890   1.434       .  S
C841        H847   1.082       .  S
C842        N843   1.368   1_556  A
C842        H844   1.082       .  S
N843        C845   1.347       .  A
N843        C916   1.430       .  S
C845        H846   1.083       .  S
C850        C852   1.518       .  S
C850        C854   1.516       .  S
C850        C853   1.517       .  S
C850        C994   1.502       .  S
C851        C855   1.558       .  S
C851        C857   1.558       .  S
C851        C856   1.560       .  S
C851        C978   1.554       .  S
C852        C860   1.370       .  A
C852        C855   1.400       .  A
C853        C864   1.374       .  A
C853        C856   1.395       .  A
C854        C868   1.367       .  A
C854        C857   1.399       .  A
C855        C858   1.385       .  A
C856        C862   1.385       .  A
C857        C865   1.387       .  A
C858        N859   1.367       .  A
C858        H871   1.082       .  S
N859        C860   1.347       .  A
N859        C930   1.428       .  S
C860        H861   1.082       .  S
C862        N863   1.365       .  A
C862        H872   1.082       .  S
N863        C864   1.348       .  A
N863        C938   1.430       .  S
C864        H870   1.083       .  S
C865        N866   1.367       .  A
C865        H867   1.082       .  S
N866        C868   1.344       .  A
N866        C964   1.426       .  S
C868        H869   1.082       .  S
O873       Mg875   2.157       .  S
C874        H913   1.082       .  S
C874        O887   1.232       .  S
C874        O911   1.266       .  A
Mg875       O919   2.300       .  S
O876       Mg901   2.181       .  S
O877        C908   1.268   1_565  A
O877       Mg901   2.305       .  S
C878        O880   1.272       .  A
C878        O892   1.272       .  A
O879        C907   1.271       .  A
O880       Mg912   2.292       .  S
Mg881       O887   2.164   1_545  S
Mg881       O883   2.292   1_546  S
C882        O920   1.270       .  A
C882        O888   1.274   1_554  A
O883        C890   1.272       .  A
C885        O900   1.268       .  A
O886        C909   1.267       .  A
O887       Mg901   2.170   1_556  S
O888       Mg918   2.304       .  S
C889        O902   1.273       .  A
C889        O894   1.270   1_556  A
C890        O917   1.272       .  A
Mg891       O898   2.167       .  S
Mg891       O892   2.293   1_554  S
O893        C897   1.270       .  A
O894       Mg901   2.277       .  S
O895        C914   1.270       .  A
O896        C916   1.270   1_556  A
O896       Mg912   2.282       .  S
O898       Mg912   2.173   1_554  S
O898        C909   1.232       .  S
O899       Mg918   2.162       .  S
O900       Mg912   2.307       .  S
Mg901       O917   2.289       .  S
O904       Mg912   2.181       .  S
H906        C909   1.081       .  S
C914        O919   1.273   1_556  A
O915        C916   1.272       .  A
O921       Mg923   2.157       .  S
C922        H961   1.081       .  S
C922        O935   1.232       .  S
C922        O959   1.266       .  A
Mg923       O967   2.291       .  S
O924       Mg949   2.168       .  S
O925        C956   1.267       .  A
O925       Mg949   2.299       .  S
C926        O928   1.273       .  A
C926        O940   1.271       .  A
O927        C955   1.268       .  A
O928       Mg960   2.278       .  S
Mg929       O935   2.152       .  S
Mg929       O931   2.279       .  S
C930        O968   1.271       .  A
C930        O936   1.271       .  A
O931        C938   1.271       .  A
C933        O948   1.265   1_455  A
O934        C957   1.266       .  A
O935       Mg949   2.175       .  S
O936       Mg966   2.284       .  S
C937        O950   1.270       .  A
C937        O942   1.271       .  A
C938        O965   1.273       .  A
Mg939       O946   2.155       .  S
Mg939       O940   2.277       .  S
O941        C945   1.267       .  A
O942       Mg949   2.280       .  S
O943        C962   1.270       .  A
O944        C964   1.269       .  A
O944       Mg960   2.271       .  S
O946       Mg960   2.187       .  S
O946        C957   1.232       .  S
O947       Mg966   2.154       .  S
O948       Mg960   2.292       .  S
Mg949       O965   2.284       .  S
O952       Mg960   2.166       .  S
H954        C957   1.081       .  S
C962        O967   1.272       .  A
O963        C964   1.272       .  A
C969        C970   1.414       .  A
C969        C974   1.413       .  A
C969        C977   1.529       .  S
C970        C971   1.418       .  A
C970        H979   1.083       .  S
C971        C972   1.412       .  A
C971        H980   1.082       .  S
C972        C973   1.412       .  A
C972        C975   1.526       .  S
C973        C974   1.416       .  A
C973        H981   1.083       .  S
C974        H982   1.081       .  S
C975        H983   1.086       .  S
C975        C976   1.363       .  D
C976        H984   1.084       .  S
C977        H985   1.086       .  S
C977        C978   1.364       .  D
C978        H986   1.083       .  S
C987        C988   1.410       .  A
C987        C992   1.399       .  A
C987        C995   1.477       .  S
C988        C989   1.395       .  A
C988        H997   1.081       .  S
C989        C990   1.398       .  A
C989        H998   1.084       .  S
C990        C991   1.406       .  A
C990        C993   1.472       .  S
C991        C992   1.392       .  A
C991        H999   1.083       .  S
C992       H1000   1.084       .  S
C993       H1001   1.087       .  S
C993        C994   1.339       .  D
C994       H1002   1.084       .  S
C995       H1003   1.088       .  S
C995        C996   1.339       .  D
C996       H1004   1.082       .  S
C1005      C1006   1.412       .  A
C1005      C1010   1.400       .  A
C1005      C1013   1.482       .  S
C1006      C1007   1.396       .  A
C1006      H1015   1.081       .  S
C1007      C1008   1.398       .  A
C1007      H1016   1.084       .  S
C1008      C1009   1.406       .  A
C1008      C1011   1.474       .  S
C1009      C1010   1.394       .  A
C1009      H1017   1.083       .  S
C1010      H1018   1.084       .  S
C1011      H1019   1.087       .  S
C1011      C1012   1.341       .  D
C1012      H1020   1.085       .  S
C1013      H1021   1.087       .  S
C1013      C1014   1.340       .  D
C1014      H1022   1.081       .  S
C1023      C1024   1.413       .  A
C1023      C1028   1.412       .  A
C1023      C1031   1.528       .  S
C1024      C1025   1.418       .  A
C1024      H1033   1.083       .  S
C1025      C1026   1.413       .  A
C1025      H1034   1.081       .  S
C1026      C1027   1.414       .  A
C1026      C1029   1.529       .  S
C1027      C1028   1.417       .  A
C1027      H1035   1.083       .  S
C1028      H1036   1.082       .  S
C1029      H1037   1.086       .  S
C1029      C1030   1.366       .  D
C1030      H1038   1.084       .  S
C1031      H1039   1.086       .  S
C1031      C1032   1.363       .  D
C1032      H1040   1.084       .  S
