geometry optimzed in LAMMPS
_audit_creation_date              2020-12-01 
_audit_creation_method            'lammps2cif' 
_symmetry_space_group_name_H-M    'P1' 
_symmetry_Int_Tables_number       1 
_symmetry_cell_setting            triclinic 
loop_ 
_symmetry_equiv_pos_as_xyz 
  x,y,z 
_cell_length_a                    46.86127485 
_cell_length_b                    46.86191734420443 
_cell_length_c                    46.860902442170044 
_cell_angle_alpha                 90.02749848283277 
_cell_angle_beta                  89.86465649750286 
_cell_angle_gamma                 90.0057282920565 
loop_ 
_atom_site_label 
_atom_site_type_symbol 
_atom_site_fract_x 
_atom_site_fract_y 
_atom_site_fract_z 
_atom_site_charge 
C1          C  0.69870530  0.22865922  0.60631820     0.04100
C2          C  0.70139926  0.25159579  0.58625289    -0.12000
C3          C  0.71494416  0.24691337  0.55898652     0.01600
C4          C  0.72099313  0.21864782  0.55236807    -0.10600
C5          C  0.73041239  0.20132185  0.57511330     0.04100
C6          C  0.71490835  0.20380302  0.60066354    -0.10000
H7          H  0.69355973  0.27247236  0.59211551     0.09700
H8          H  0.72749194  0.21375211  0.53079630     0.07200
H9          H  0.71902834  0.18869478  0.61764915     0.07100
C10         C  0.79746289  0.22396267  0.60370814     0.04100
C11         C  0.77676749  0.20180689  0.60217452    -0.12000
C12         C  0.76218897  0.19607891  0.57643842     0.01600
C13         C  0.77678273  0.20442080  0.55201935    -0.10600
C14         C  0.78686919  0.23251067  0.55216676     0.04100
C15         C  0.80009418  0.24174157  0.57851464    -0.10000
H16         H  0.76922599  0.19201210  0.62171646     0.09700
H17         H  0.77052280  0.19493888  0.53186809     0.07200
H18         H  0.81204868  0.26147439  0.57927215     0.07100
N19         N  0.73693091  0.26783714  0.51172767    -0.02500
C20         C  0.72456269  0.27055770  0.53864472     0.00100
C21         C  0.71971685  0.29896036  0.54461850    -0.22800
C22         C  0.72673319  0.31429936  0.52076517    -0.23000
C23         C  0.73408786  0.29526561  0.49941744     0.00000
H24         H  0.71004944  0.30781939  0.56361492     0.13800
H25         H  0.72087747  0.33644456  0.51767285     0.13800
N26         N  0.76131081  0.24898110  0.50648470    -0.02500
C27         C  0.76831290  0.23485730  0.48115116     0.00100
C28         C  0.79698090  0.22892302  0.48055696    -0.22800
C29         C  0.80817325  0.23810039  0.50605031    -0.23000
C30         C  0.78593741  0.24751384  0.52336498     0.00000
H31         H  0.80854988  0.21836738  0.46355334     0.13800
H32         H  0.82944797  0.23270619  0.51325373     0.13800
C33         C  0.71081229  0.31638488  0.42040678     0.04100
C34         C  0.69088147  0.29387543  0.41849266    -0.12000
C35         C  0.68942689  0.27375749  0.44010987     0.01600
C36         C  0.69288376  0.28413070  0.46781179    -0.10600
C37         C  0.71673804  0.30173432  0.47214995     0.04100
C38         C  0.72534279  0.31953505  0.44780531    -0.10000
H39         H  0.68291353  0.28733210  0.39778762     0.09700
H40         H  0.68648910  0.27007884  0.48506629     0.07200
H41         H  0.74371062  0.33339896  0.44953565     0.07100
C42         C  0.72312590  0.20317183  0.41791268     0.04100
C43         C  0.74614795  0.20373968  0.43849192    -0.12000
C44         C  0.74935377  0.22871995  0.45591759     0.01600
C45         C  0.73676805  0.25194427  0.44484014    -0.10600
C46         C  0.70881691  0.24945210  0.43500024     0.04100
C47         C  0.70156508  0.22420124  0.42109046    -0.10000
H48         H  0.76150368  0.18654104  0.43963563     0.09700
H49         H  0.74801991  0.27161594  0.44722433     0.07200
H50         H  0.68178025  0.22330245  0.40920653     0.07100
O51         O  0.75089258  0.29106448  0.34056048    -0.73400
O52         O  0.74801997  0.37505005  0.33668407    -0.73500
O53         O  0.74333609  0.33264097  0.38159652    -0.73500
O54         O  0.75549990  0.33204666  0.29863178    -0.73600
O55         O  0.70864656  0.32959272  0.29133124    -0.73500
O56         O  0.69674007  0.33146165  0.37328600    -0.73500
O57         O  0.70130610  0.37178829  0.32940359    -0.73500
O58         O  0.70399725  0.28945546  0.33357897    -0.73500
Ni59       Ni  0.75109259  0.33300682  0.33995904     1.25400
Ni60       Ni  0.70112931  0.33068141  0.33200119     1.25400
C61         C  0.72787708  0.27642442  0.33683936     0.88700
C62         C  0.72434192  0.38666883  0.32871026     0.88700
C63         C  0.71766063  0.32929595  0.39102466     0.88700
C64         C  0.73416158  0.33080912  0.28140480     0.88900
O65         O  0.71011612  0.19174051  0.23109891    -0.73400
O66         O  0.71961329  0.19953356  0.14886024    -0.73500
O67         O  0.70893780  0.15422093  0.18622758    -0.73500
O68         O  0.71997207  0.23479560  0.19351710    -0.73600
O69         O  0.76699053  0.22868557  0.19712749    -0.73500
O70         O  0.75505143  0.14591495  0.19359790    -0.73500
O71         O  0.76586929  0.19041548  0.15438770    -0.73500
O72         O  0.75707946  0.18621499  0.23576637    -0.73500
Ni73       Ni  0.71302479  0.19496426  0.18965732     1.25400
Ni74       Ni  0.76290319  0.18726548  0.19519114     1.25400
C75         C  0.73231635  0.18903056  0.24703140     0.88700
C76         C  0.74516434  0.19941330  0.13886017     0.88700
C77         C  0.72926428  0.13656389  0.19140358     0.88700
C78         C  0.74510317  0.24520132  0.19564898     0.88900
O79         O  0.76491133  0.33051218  0.24035003    -0.73400
O80         O  0.77873065  0.33022153  0.15840075    -0.73500
O81         O  0.77138203  0.37328974  0.20259354    -0.73500
O82         O  0.77144402  0.28967778  0.19911819    -0.73600
O83         O  0.72453921  0.29083261  0.19156395    -0.73500
O84         O  0.72522088  0.37258947  0.19212291    -0.73500
O85         O  0.73230682  0.32921806  0.14926494    -0.73500
O86         O  0.71815617  0.33175262  0.23215520    -0.73500
Ni87       Ni  0.77336048  0.33122530  0.19998432     1.25400
Ni88       Ni  0.72354515  0.33144377  0.19071745     1.25400
C89         C  0.73921645  0.33097646  0.24979869     0.88700
C90         C  0.75822787  0.32586038  0.14044620     0.88700
C91         C  0.74702686  0.38613676  0.20183984     0.88700
C92         C  0.74752943  0.27670300  0.19558338     0.88900
O93         O  0.70447072  0.23068885  0.33362898    -0.73400
O94         O  0.70317399  0.14807321  0.33065485    -0.73500
O95         O  0.70219595  0.18893339  0.37355829    -0.73500
O96         O  0.70556928  0.19011336  0.29112680    -0.73600
O97         O  0.75300349  0.18919203  0.29372035    -0.73500
O98         O  0.74956325  0.18756845  0.37636889    -0.73500
O99         O  0.75053272  0.14622067  0.33241921    -0.73500
O100        O  0.75183447  0.22999358  0.33656832    -0.73500
Ni101      Ni  0.70225949  0.18932868  0.33236123     1.25400
Ni102      Ni  0.75290442  0.18807023  0.33500927     1.25400
C103        C  0.72825673  0.24417520  0.33577290     0.88700
C104        C  0.72643373  0.13366687  0.32817967     0.88700
C105        C  0.72515475  0.19069564  0.38846116     0.88700
C106        C  0.73003142  0.18945410  0.27878326     0.88900
C107        C  0.68897908  0.91763613  0.26810688     0.04100
C108        C  0.70772951  0.91935667  0.29183943    -0.12000
C109        C  0.73357936  0.93334447  0.28793264     0.01600
C110        C  0.73853197  0.94508447  0.26117401    -0.10600
C111        C  0.71682016  0.95848781  0.24857978     0.04100
C112        C  0.69189825  0.94023944  0.24691584    -0.10000
H113        H  0.70493664  0.90644906  0.31080727     0.09700
H114        H  0.75907022  0.94686423  0.25104638     0.07200
H115        H  0.67659648  0.94263954  0.22984340     0.07100
C116        C  0.79927419  0.91518888  0.29032965     0.04100
C117        C  0.77518062  0.91353763  0.30837303    -0.12000
C118        C  0.75624050  0.93619357  0.30943285     0.01600
C119        C  0.76826779  0.96341528  0.30803405    -0.10600
C120        C  0.78789573  0.96767929  0.28574196     0.04100
C121        C  0.80505575  0.94287459  0.27745336    -0.10000
H122        H  0.76698181  0.89284727  0.31476734     0.09700
H123        H  0.75473003  0.98117528  0.31412449     0.07200
H124        H  0.82067034  0.94469542  0.26051136     0.07100
N125        N  0.73981627  0.00998161  0.24207782    -0.02500
C126        C  0.72591585  0.98496269  0.23236177     0.00100
C127        C  0.72394449  0.98472910  0.20316292    -0.22800
C128        C  0.73486338  0.00985801  0.19352055    -0.23000
C129        C  0.74054440  0.02684833  0.21697880     0.00000
H130        H  0.71498033  0.96793960  0.19007669     0.13800
H131        H  0.73250649  0.01717425  0.17170880     0.13800
N132        N  0.76019879  0.01250147  0.26641909    -0.02500
C133        C  0.78556684  0.99622423  0.26962544     0.00100
C134        C  0.80696676  0.01361466  0.28013986    -0.22800
C135        C  0.79470749  0.03809163  0.28994144    -0.23000
C136        C  0.76639945  0.03732004  0.28262965     0.00000
H137        H  0.82820926  0.00679185  0.28619694     0.13800
H138        H  0.80543912  0.05486082  0.30164314     0.13800
C139        C  0.72040406  0.10713850  0.20153602     0.04100
C140        C  0.69830068  0.10821777  0.22197847    -0.12000
C141        C  0.69463655  0.08541491  0.24037602     0.01600
C142        C  0.69873684  0.05830995  0.22844519    -0.10600
C143        C  0.72404965  0.05481022  0.21260594     0.04100
C144        C  0.73460249  0.07994090  0.19756807    -0.10000
H145        H  0.69014490  0.12872402  0.22901580     0.09700
H146        H  0.69101719  0.04020528  0.24061989     0.07200
H147        H  0.75404128  0.07874287  0.18512833     0.07100
C148        C  0.72471758  0.10478494  0.31355901     0.04100
C149        C  0.70448304  0.10365209  0.29100916    -0.12000
C150        C  0.71199853  0.08863495  0.26641012     0.01600
C151        C  0.73914929  0.07680187  0.26589468    -0.10600
C152        C  0.74815610  0.06337958  0.28926077     0.04100
C153        C  0.74575128  0.08175453  0.31410059    -0.10000
H154        H  0.68587928  0.11736340  0.29053328     0.09700
H155        H  0.75264503  0.07556696  0.24748282     0.07200
H156        H  0.76009930  0.07926861  0.33197740     0.07100
C157        C  0.72258353  0.41557830  0.31380597     0.04100
C158        C  0.70521083  0.41628579  0.28898113    -0.12000
C159        C  0.70034554  0.44206462  0.27419456     0.01600
C160        C  0.70555585  0.46671014  0.28989698    -0.10600
C161        C  0.73102702  0.46726012  0.30515834     0.04100
C162        C  0.73832113  0.44129480  0.32006536    -0.10000
H163        H  0.69808529  0.39639269  0.27962004     0.09700
H164        H  0.69656797  0.48669743  0.28253368     0.07200
H165        H  0.75495819  0.44127167  0.33603473     0.07100
C166        C  0.74157884  0.41523332  0.21570859     0.04100
C167        C  0.71401985  0.41918735  0.22767556    -0.12000
C168        C  0.70741166  0.44425030  0.24281521     0.01600
C169        C  0.72387678  0.46821491  0.23541041    -0.10600
C170        C  0.75313193  0.46376230  0.23518825     0.04100
C171        C  0.76236281  0.43684511  0.22275952    -0.10000
H172        H  0.69952754  0.40124531  0.22925280     0.09700
H173        H  0.71626201  0.48936001  0.24067962     0.07200
H174        H  0.78471208  0.43254611  0.21902355     0.07100
N175        N  0.74588561  0.51600666  0.28528828    -0.02500
C176        C  0.73247511  0.54055699  0.29649152     0.00100
C177        C  0.72772727  0.53722604  0.32525344    -0.22800
C178        C  0.73650036  0.51030232  0.33249830    -0.23000
C179        C  0.74479290  0.49633730  0.30776720     0.00000
H180        H  0.71755156  0.55242783  0.33938829     0.13800
H181        H  0.73164314  0.50022425  0.35273261     0.13800
N182        N  0.76429418  0.51302792  0.25988953    -0.02500
C183        C  0.78919112  0.52935353  0.25592990     0.00100
C184        C  0.81213611  0.51158522  0.25082629    -0.22800
C185        C  0.80154950  0.48500274  0.24550456    -0.23000
C186        C  0.77234154  0.48638554  0.24889409     0.00000
H187        H  0.83342795  0.51833667  0.24481329     0.13800
H188        H  0.81374993  0.46760987  0.23648932     0.13800
C189        C  0.69257120  0.60718106  0.26252474     0.04100
C190        C  0.69739092  0.58495613  0.28376310    -0.12000
C191        C  0.72298032  0.56775107  0.28145905     0.01600
C192        C  0.74360650  0.58089570  0.26667807    -0.10600
C193        C  0.73653223  0.59212255  0.24011609     0.04100
C194        C  0.71038316  0.60621619  0.23799909    -0.10000
H195        H  0.68260105  0.58183226  0.30123437     0.09700
H196        H  0.76497526  0.57840760  0.27458510     0.07200
H197        H  0.70616439  0.61918027  0.21935361     0.07100
C198        C  0.80173672  0.60856404  0.23175543     0.04100
C199        C  0.77672490  0.61028783  0.21525269    -0.12000
C200        C  0.75726504  0.58807146  0.21665686     0.01600
C201        C  0.76892654  0.56057059  0.21764873    -0.10600
C202        C  0.79078220  0.55646514  0.23774506     0.04100
C203        C  0.80849309  0.58114331  0.24424122    -0.10000
H204        H  0.76848459  0.63108089  0.20927741     0.09700
H205        H  0.75452809  0.54292728  0.21359454     0.07200
H206        H  0.82498041  0.57961214  0.26029706     0.07100
C207        C  0.89668899  0.71287838  0.25923573     0.04100
C208        C  0.90031482  0.72185592  0.28790547    -0.12000
C209        C  0.92487352  0.73671892  0.29606006     0.01600
C210        C  0.94924469  0.73073444  0.27957474    -0.10600
C211        C  0.94542971  0.73282197  0.25026414     0.04100
C212        C  0.91868027  0.72146849  0.23949535    -0.10000
H213        H  0.88227579  0.72201749  0.30240483     0.09700
H214        H  0.97013712  0.73558967  0.28806582     0.07200
H215        H  0.91478007  0.71973790  0.21684692     0.07100
C216        C  0.89574299  0.80765045  0.28233399     0.04100
C217        C  0.92197421  0.81495859  0.26823635    -0.12000
C218        C  0.94765429  0.80031921  0.27632022     0.01600
C219        C  0.94622546  0.78389889  0.30108278    -0.10600
C220        C  0.92166307  0.76763783  0.30446664     0.04100
C221        C  0.89586844  0.78224421  0.29888951    -0.10000
H222        H  0.92253543  0.83161759  0.25226464     0.09700
H223        H  0.96590723  0.77631214  0.31053805     0.07200
H224        H  0.87574535  0.77236983  0.30459352     0.07100
N225        N  0.99477651  0.75818723  0.24220141    -0.02500
C226        C  0.01186047  0.75560066  0.21762995     0.00100
C227        C  0.99485776  0.75233505  0.19385276    -0.22800
C228        C  0.96793917  0.74648813  0.20326671    -0.23000
C229        C  0.96843469  0.74787872  0.23265397     0.00000
H230        H  0.00227710  0.74766996  0.17244123     0.13800
H231        H  0.95094822  0.73834028  0.19000219     0.13800
N232        N  0.99707441  0.78254751  0.26200017    -0.02500
C233        C  0.97707309  0.80455483  0.26427352     0.00100
C234        C  0.99005004  0.82858982  0.27554503    -0.22800
C235        C  0.01666860  0.82099720  0.28469107    -0.23000
C236        C  0.02084803  0.79297345  0.27715170     0.00000
H237        H  0.97929263  0.84802800  0.28197445     0.13800
H238        H  0.03107159  0.83428531  0.29689113     0.13800
C239        C  0.09059950  0.73030240  0.20474730     0.04100
C240        C  0.09224469  0.71449003  0.23030172    -0.12000
C241        C  0.06958322  0.71510132  0.24930544     0.01600
C242        C  0.04233329  0.71636397  0.23718771    -0.10600
C243        C  0.03869144  0.73704470  0.21578913     0.04100
C244        C  0.06347524  0.74338857  0.19815821    -0.10000
H245        H  0.11294196  0.70869116  0.23885456     0.09700
H246        H  0.02443138  0.71204662  0.25123741     0.07200
H247        H  0.06213137  0.75929610  0.18148822     0.07100
C248        C  0.08712448  0.75837761  0.31601907     0.04100
C249        C  0.06454160  0.77923027  0.31194695    -0.12000
C250        C  0.04790988  0.77779651  0.28609152     0.01600
C251        C  0.06154750  0.76415515  0.26497931    -0.10600
C252        C  0.07300932  0.73748513  0.27116673     0.04100
C253        C  0.08662285  0.73439714  0.29747862    -0.10000
H254        H  0.06102950  0.79610698  0.32731713     0.09700
H255        H  0.05932391  0.77279762  0.24394070     0.07200
H256        H  0.09994547  0.71586600  0.30109389     0.07100
O257        O  0.77087746  0.69345527  0.22772832    -0.73400
O258        O  0.85499688  0.70181020  0.22811796    -0.73500
O259        O  0.81590128  0.65609652  0.21953919    -0.73500
O260        O  0.80992379  0.73673256  0.23415868    -0.73600
O261        O  0.81191552  0.72804771  0.28084940    -0.73500
O262        O  0.81400138  0.64602635  0.26587236    -0.73500
O263        O  0.85399907  0.68939991  0.27381550    -0.73500
O264        O  0.77252093  0.68589284  0.27454602    -0.73500
Ni265      Ni  0.81304127  0.69692991  0.22558353     1.25400
Ni266      Ni  0.81330843  0.68683714  0.27525636     1.25400
C267        C  0.75789687  0.68968600  0.25185607     0.88700
C268        C  0.86764739  0.69990143  0.25252458     0.88700
C269        C  0.81323560  0.63765424  0.23972512     0.88700
C270        C  0.81065560  0.74578212  0.25986533     0.88900
O271        O  0.71356801  0.83375220  0.24124257    -0.73400
O272        O  0.62969935  0.83279816  0.23967325    -0.73500
O273        O  0.67310190  0.87575496  0.24049504    -0.73500
O274        O  0.67148257  0.79183768  0.24031806    -0.73600
O275        O  0.67055913  0.79182439  0.28777775    -0.73500
O276        O  0.67189086  0.87409872  0.28785573    -0.73500
O277        O  0.63039927  0.83383210  0.28705283    -0.73500
O278        O  0.71198345  0.83275293  0.28870674    -0.73500
Ni279      Ni  0.67178869  0.83371497  0.23859051     1.25400
Ni280      Ni  0.67102387  0.83321991  0.28927043     1.25400
C281        C  0.72647371  0.83347315  0.26552034     0.88700
C282        C  0.61646707  0.83076451  0.26375617     0.88700
C283        C  0.67542060  0.88846822  0.26480088     0.88700
C284        C  0.67093527  0.77799792  0.26412462     0.88900
O285        O  0.66691893  0.73152762  0.24156382    -0.73400
O286        O  0.66800850  0.64853908  0.24411447    -0.73500
O287        O  0.62532686  0.69138220  0.25150718    -0.73500
O288        O  0.70811183  0.68975123  0.23463113    -0.73600
O289        O  0.71643685  0.69145897  0.28130006    -0.73500
O290        O  0.63568259  0.69023310  0.29771588    -0.73500
O291        O  0.67867679  0.64898214  0.29028759    -0.73500
O292        O  0.67490244  0.73235262  0.28832099    -0.73500
Ni293      Ni  0.66649715  0.69000741  0.24134783     1.25400
Ni294      Ni  0.67647294  0.69069591  0.29097392     1.25400
C295        C  0.67089727  0.74576954  0.26464604     0.88700
C296        C  0.67704601  0.63536897  0.26651901     0.88700
C297        C  0.61711638  0.69347679  0.27777096     0.88700
C298        C  0.72590384  0.69034334  0.25559294     0.88900
O299        O  0.81427348  0.79442268  0.24399230    -0.73400
O300        O  0.81616363  0.87693131  0.25770698    -0.73500
O301        O  0.85746569  0.83130379  0.25502528    -0.73500
O302        O  0.77452769  0.83718804  0.24595281    -0.73600
O303        O  0.76940466  0.82972845  0.29259630    -0.73500
O304        O  0.85076150  0.82262518  0.30120749    -0.73500
O305        O  0.81187177  0.86756046  0.30397923    -0.73500
O306        O  0.80802078  0.78651400  0.29047180    -0.73500
Ni307      Ni  0.81607278  0.83556205  0.24900696     1.25400
Ni308      Ni  0.80998695  0.82667907  0.29860683     1.25400
C309        C  0.81080319  0.77705136  0.26501366     0.88700
C310        C  0.81158623  0.88576793  0.28340399     0.88700
C311        C  0.86715040  0.82245301  0.27920352     0.88700
C312        C  0.75833165  0.83356013  0.26786325     0.88900
C313        C  0.58851357  0.70664753  0.28654928     0.04100
C314        C  0.55980652  0.70164314  0.27571308    -0.12000
C315        C  0.53608610  0.71943877  0.28577915     0.01600
C316        C  0.54237201  0.73874518  0.30778346    -0.10600
C317        C  0.56991871  0.74999691  0.30743024     0.04100
C318        C  0.59204590  0.73055488  0.30447423    -0.10000
H319        H  0.55640865  0.68623786  0.25886423     0.09700
H320        H  0.52542987  0.75274996  0.31508533     0.07200
H321        H  0.61338389  0.73810705  0.30932957     0.07100
C322        C  0.58712743  0.81776192  0.26673004     0.04100
C323        C  0.56491781  0.81506726  0.24528409    -0.12000
C324        C  0.54681062  0.79013517  0.24653765     0.01600
C325        C  0.55951376  0.76813501  0.25955088    -0.10600
C326        C  0.57175678  0.77292626  0.28612870     0.04100
C327        C  0.58510326  0.79895133  0.29037892    -0.10000
H328        H  0.56258510  0.83065775  0.22843732     0.09700
H329        H  0.55664311  0.74756479  0.24990937     0.07200
H330        H  0.59772882  0.80167349  0.30952437     0.07100
N331        N  0.49269163  0.74985628  0.26743129    -0.02500
C332        C  0.50682869  0.72342629  0.27139501     0.00100
C333        C  0.48763911  0.70374481  0.28201397    -0.22800
C334        C  0.46322363  0.71785499  0.28929569    -0.23000
C335        C  0.46648645  0.74606628  0.28161570     0.00000
H336        H  0.49279414  0.68245119  0.28938203     0.13800
H337        H  0.44567174  0.70846078  0.30096182     0.13800
N338        N  0.49570891  0.76708561  0.24137016    -0.02500
C339        C  0.47750232  0.76528425  0.21782027     0.00100
C340        C  0.49243265  0.77360274  0.19361743    -0.22800
C341        C  0.51794521  0.78511247  0.20199902    -0.23000
C342        C  0.51980738  0.78178310  0.23103598     0.00000
H343        H  0.48342700  0.77646263  0.17254038     0.13800
H344        H  0.53350780  0.79523096  0.18822198     0.13800
C345        C  0.39518192  0.78347347  0.30723639     0.04100
C346        C  0.39866915  0.80770765  0.28953585    -0.12000
C347        C  0.42352481  0.81115255  0.27315559     0.01600
C348        C  0.44793253  0.79665820  0.28318166    -0.10600
C349        C  0.44399891  0.76830374  0.29067125     0.04100
C350        C  0.41723109  0.76208021  0.30518028    -0.10000
H351        H  0.38050609  0.82118840  0.28482834     0.09700
H352        H  0.46888220  0.80292198  0.27581887     0.07200
H353        H  0.41319261  0.74122188  0.31410599     0.07100
C354        C  0.39593767  0.78118497  0.20747482     0.04100
C355        C  0.39544636  0.80388568  0.22764750    -0.12000
C356        C  0.42087578  0.81302702  0.24110623     0.01600
C357        C  0.44571731  0.80602325  0.22651506    -0.10600
C358        C  0.44776161  0.77764919  0.21761167     0.04100
C359        C  0.42240433  0.76569074  0.20507580    -0.10000
H360        H  0.37508754  0.81182247  0.23523597     0.09700
H361        H  0.46511269  0.81750965  0.23171050     0.07200
H362        H  0.42335492  0.74568774  0.19357523     0.07100
O363        O  0.27200332  0.74985789  0.33037391    -0.73400
O364        O  0.35501737  0.75564638  0.32765560    -0.73500
O365        O  0.31134704  0.75629808  0.37169324    -0.73500
O366        O  0.31324059  0.74941450  0.28918663    -0.73600
O367        O  0.30926330  0.79667242  0.28496391    -0.73500
O368        O  0.30817163  0.80330346  0.36635924    -0.73500
O369        O  0.35034557  0.80264460  0.32373155    -0.73500
O370        O  0.26842844  0.79707606  0.32582697    -0.73500
Ni371      Ni  0.31331643  0.75109565  0.33020625     1.25400
Ni372      Ni  0.30918768  0.80152206  0.32538866     1.25400
C373        C  0.25670069  0.77249928  0.32812707     0.88700
C374        C  0.36588901  0.78011518  0.32126541     0.88700
C375        C  0.30566614  0.78106330  0.38221226     0.88700
C376        C  0.31153971  0.77194129  0.27371621     0.88900
O377        O  0.16746038  0.77428161  0.22714401    -0.73400
O378        O  0.17427936  0.76150508  0.14464533    -0.73500
O379        O  0.12859921  0.76118750  0.18572708    -0.73500
O380        O  0.21084324  0.77420647  0.18718925    -0.73600
O381        O  0.21816700  0.72810697  0.19626940    -0.73500
O382        O  0.13741643  0.71502666  0.19221108    -0.73500
O383        O  0.18283260  0.71572294  0.15361936    -0.73500
O384        O  0.17422131  0.72796700  0.23505217    -0.73500
Ni385      Ni  0.16976588  0.76943473  0.18571123     1.25400
Ni386      Ni  0.17811131  0.72014913  0.19441518     1.25400
C387        C  0.17003167  0.75329590  0.24473183     0.88700
C388        C  0.18309324  0.73686006  0.13609578     0.88700
C389        C  0.11960795  0.73588073  0.19160059     0.88700
C390        C  0.22790745  0.75312587  0.19137485     0.88900
O391        O  0.17062176  0.73738365  0.29414578    -0.73400
O392        O  0.17598926  0.75125721  0.37647385    -0.73500
O393        O  0.13109527  0.74206253  0.33680461    -0.73500
O394        O  0.21328131  0.74623531  0.33291278    -0.73600
O395        O  0.21009511  0.79301783  0.32497210    -0.73500
O396        O  0.12743908  0.78856864  0.32817669    -0.73500
O397        O  0.17234651  0.79774221  0.36776413    -0.73500
O398        O  0.16743902  0.78407587  0.28616292    -0.73500
Ni399      Ni  0.17249536  0.74261657  0.33555887     1.25400
Ni400      Ni  0.16893586  0.79247544  0.32675631     1.25400
C401        C  0.16904520  0.75845009  0.27652327     0.88700
C402        C  0.17848609  0.77725533  0.38504885     0.88700
C403        C  0.11580163  0.76377235  0.32973635     0.88700
C404        C  0.22520172  0.77044707  0.32856295     0.88900
O405        O  0.26905626  0.78272445  0.18712342    -0.73400
O406        O  0.35056842  0.79405773  0.18700562    -0.73500
O407        O  0.30769744  0.78408477  0.14465576    -0.73500
O408        O  0.30960548  0.79176098  0.22701155    -0.73600
O409        O  0.31620617  0.74481606  0.23147038    -0.73500
O410        O  0.31619790  0.73773689  0.14998877    -0.73500
O411        O  0.35836024  0.74760345  0.19267030    -0.73500
O412        O  0.27606379  0.73586082  0.19135050    -0.73500
Ni413      Ni  0.30936944  0.78982952  0.18597363     1.25400
Ni414      Ni  0.31722104  0.73986192  0.19112279     1.25400
C415        C  0.25915723  0.75744168  0.18998191     0.88700
C416        C  0.36749967  0.77349236  0.19382604     0.88700
C417        C  0.30793426  0.75867522  0.13425609     0.88700
C418        C  0.31245722  0.76942212  0.24259064     0.88900
C419        C  0.29241789  0.78507201  0.41153418     0.04100
C420        C  0.28966415  0.76349900  0.43315111    -0.12000
C421        C  0.27551577  0.76991271  0.45990014     0.01600
C422        C  0.26915508  0.79848171  0.46438052    -0.10600
C423        C  0.25955376  0.81365120  0.44023320     0.04100
C424        C  0.27585215  0.81004259  0.41540699    -0.10000
H425        H  0.29764498  0.74232831  0.42873206     0.09700
H426        H  0.26205469  0.80472261  0.48541853     0.07200
H427        H  0.27159224  0.82395514  0.39746347     0.07100
C428        C  0.19264920  0.78493172  0.41327011     0.04100
C429        C  0.18947140  0.77032628  0.44016016    -0.12000
C430        C  0.20250366  0.78243311  0.46518014     0.01600
C431        C  0.21277336  0.81027642  0.46244617    -0.10600
C432        C  0.22756517  0.81602498  0.43744393     0.04100
C433        C  0.21389831  0.80660045  0.41220900    -0.10000
H434        H  0.17710776  0.75088240  0.44164493     0.09700
H435        H  0.21870554  0.82190398  0.48155242     0.07200
H436        H  0.22193201  0.81351541  0.39165174     0.07100
N437        N  0.25186392  0.75168210  0.50792327    -0.02500
C438        C  0.25375569  0.72463917  0.52099618     0.00100
C439        C  0.26184643  0.70467130  0.50087985    -0.22800
C440        C  0.26984046  0.71893719  0.47678437    -0.23000
C441        C  0.26502962  0.74761307  0.48139549     0.00000
H442        H  0.26727227  0.68260227  0.50511070     0.13800
H443        H  0.28003221  0.70916006  0.45853200     0.13800
N444        N  0.22743979  0.77080185  0.51206932    -0.02500
C445        C  0.20293370  0.77073189  0.49516232     0.00100
C446        C  0.18050098  0.78168895  0.51118011    -0.22800
C447        C  0.19134208  0.79285110  0.53595208    -0.23000
C448        C  0.21999205  0.78680719  0.53630435     0.00000
H449        H  0.15930930  0.78634766  0.50326443     0.13800
H450        H  0.17945859  0.80442850  0.55205631     0.13800
C451        C  0.26962890  0.70560838  0.60127822     0.04100
C452        C  0.25757238  0.70204398  0.57304025    -0.12000
C453        C  0.26880356  0.71886834  0.54938775     0.01600
C454        C  0.29279716  0.73594302  0.55515149    -0.10600
C455        C  0.29462243  0.74677380  0.58288515     0.04100
C456        C  0.29028290  0.72727336  0.60466482    -0.10000
H457        H  0.23902832  0.68862889  0.57001950     0.09700
H458        H  0.30086769  0.74938314  0.53811587     0.07200
H459        H  0.29658124  0.73385880  0.62594298     0.07100
C460        C  0.26142967  0.81851257  0.60238386     0.04100
C461        C  0.28281879  0.79705351  0.60041110    -0.12000
C462        C  0.27602688  0.77195365  0.58602587     0.01600
C463        C  0.24886446  0.77011807  0.57442250    -0.10600
C464        C  0.23768629  0.79341556  0.56234322     0.04100
C465        C  0.23968528  0.81826331  0.58036199    -0.10000
H466        H  0.30188940  0.79748904  0.61341741     0.09700
H467        H  0.23712390  0.75053757  0.57168946     0.07200
H468        H  0.22454966  0.83556235  0.57837272     0.07100
C469        C  0.24551676  0.71248966  0.90814015     0.04100
C470        C  0.27280766  0.72519043  0.91050762    -0.12000
C471        C  0.28086263  0.73914022  0.93563034     0.01600
C472        C  0.26575412  0.73108352  0.96031838    -0.10600
C473        C  0.23631206  0.72873275  0.95772684     0.04100
C474        C  0.22599804  0.71715296  0.93118948    -0.10000
H475        H  0.28598256  0.72784594  0.89166044     0.09700
H476        H  0.27448561  0.73581330  0.98107528     0.07200
H477        H  0.20367750  0.71216097  0.92829363     0.07100
C478        C  0.26605100  0.81040951  0.91050724     0.04100
C479        C  0.25147785  0.81506589  0.93745102    -0.12000
C480        C  0.26077505  0.79931820  0.96243892     0.01600
C481        C  0.28661895  0.78484862  0.95956821    -0.10600
C482        C  0.29004101  0.76996177  0.93416902     0.04100
C483        C  0.28401486  0.78596104  0.90935861    -0.10000
H484        H  0.23419175  0.83028710  0.93900671     0.09700
H485        H  0.29687402  0.77658408  0.97856100     0.07200
H486        H  0.29043064  0.77758703  0.88877265     0.07100
N487        N  0.22624261  0.75219495  0.00728281    -0.02500
C488        C  0.20293926  0.74999969  0.02571504     0.00100
C489        C  0.17971714  0.74002927  0.01047440    -0.22800
C490        C  0.18896404  0.73264589  0.98368179    -0.23000
C491        C  0.21761343  0.73923033  0.98207790     0.00000
H492        H  0.15950170  0.73333435  0.01950799     0.13800
H493        H  0.17644359  0.72116162  0.96810094     0.13800
N494        N  0.24787198  0.77431035  0.00945789    -0.02500
C495        C  0.24796827  0.79876444  0.99232758     0.00100
C496        C  0.25656424  0.82163224  0.00892112    -0.22800
C497        C  0.26564256  0.81126920  0.03478562    -0.23000
C498        C  0.26143053  0.78213825  0.03467967     0.00000
H499        H  0.26140211  0.84284346  0.00112648     0.13800
H500        H  0.27668799  0.82364097  0.05079593     0.13800
C501        C  0.19753117  0.73225010  0.10731455     0.04100
C502        C  0.22224433  0.71461713  0.10724463    -0.12000
C503        C  0.23669601  0.70831936  0.08144454     0.01600
C504        C  0.22032449  0.71160821  0.05694951    -0.10600
C505        C  0.20507196  0.73711936  0.05515521     0.04100
C506        C  0.19093242  0.74635345  0.08084863    -0.10000
H507        H  0.23198070  0.70886864  0.12738019     0.09700
H508        H  0.22766185  0.70163754  0.03737798     0.07200
H509        H  0.17537936  0.76340027  0.08020078     0.07100
C510        C  0.29499489  0.75174504  0.10539414     0.04100
C511        C  0.28774228  0.77211223  0.08359639    -0.12000
C512        C  0.27470670  0.76268479  0.05729256     0.01600
C513        C  0.27357931  0.73330669  0.05344429    -0.10600
C514        C  0.26755932  0.71694155  0.07794512     0.04100
C515        C  0.28337105  0.72402641  0.10230983    -0.10000
H516        H  0.29160179  0.79451959  0.08743472     0.09700
H517        H  0.26760087  0.72534187  0.03268239     0.07200
H518        H  0.28230709  0.70988744  0.12056277     0.07100
C519        C  0.26558578  0.91694324  0.70729740     0.04100
C520        C  0.29164542  0.92086244  0.72200236    -0.12000
C521        C  0.29620770  0.94550293  0.73819473     0.01600
C522        C  0.28030227  0.96965180  0.72985530    -0.10600
C523        C  0.25138358  0.96509223  0.72535476     0.04100
C524        C  0.24413857  0.93842738  0.71158860    -0.10000
H525        H  0.30601480  0.90303288  0.72508839     0.09700
H526        H  0.28693320  0.99063928  0.73668505     0.07200
H527        H  0.22250078  0.93402491  0.70501587     0.07100
C528        C  0.27228904  0.91710015  0.80661106     0.04100
C529        C  0.29251140  0.91677441  0.78387248    -0.12000
C530        C  0.30073231  0.94230389  0.76989945     0.01600
C531        C  0.29574248  0.96704316  0.78528415    -0.10600
C532        C  0.26846751  0.96955557  0.79702098     0.04100
C533        C  0.25754746  0.94405512  0.81086826    -0.10000
H534        H  0.29924848  0.89647499  0.77508825     0.09700
H535        H  0.30693945  0.98625562  0.77882755     0.07200
H536        H  0.23894669  0.94523472  0.82452938     0.07100
N537        N  0.25505910  0.01731988  0.77296513    -0.02500
C538        C  0.25687239  0.99993676  0.79730309     0.00100
C539        C  0.26942158  0.01589921  0.81892034    -0.22800
C540        C  0.27940588  0.04102445  0.80755821    -0.23000
C541        C  0.27119228  0.04176815  0.77948317     0.00000
H542        H  0.27581429  0.00779714  0.83958382     0.13800
H543        H  0.29180720  0.05701769  0.81867330     0.13800
N544        N  0.23483425  0.01321858  0.74943482    -0.02500
C545        C  0.20785643  0.02668278  0.74840004     0.00100
C546        C  0.18725212  0.00637454  0.74285216    -0.22800
C547        C  0.20083034  0.98186198  0.73481371    -0.23000
C548        C  0.22977882  0.98649201  0.73729232     0.00000
H549        H  0.16490718  0.01057778  0.73871787     0.13800
H550        H  0.19034293  0.96334479  0.72594914     0.13800
C551        C  0.18836479  0.10620628  0.72783913     0.04100
C552        C  0.20993761  0.10829716  0.70690515    -0.12000
C553        C  0.22925583  0.08610253  0.70374172     0.01600
C554        C  0.21812425  0.05859062  0.70692208    -0.10600
C555        C  0.20142212  0.05412872  0.73148230     0.04100
C556        C  0.18493372  0.07861387  0.74162311    -0.10000
H557        H  0.21661989  0.12916767  0.69941726     0.09700
H558        H  0.23136023  0.04108916  0.69954413     0.07200
H559        H  0.17186896  0.07675574  0.76059818     0.07100
C560        C  0.30037588  0.10844695  0.73624063     0.04100
C561        C  0.30100310  0.08683872  0.75852248    -0.12000
C562        C  0.27689313  0.06783876  0.76113450     0.01600
C563        C  0.25326174  0.07863064  0.74946489    -0.01000
C564        C  0.25458816  0.08985566  0.72204199     0.04100
C565        C  0.27897412  0.10534138  0.71502681    -0.10000
H566        H  0.31841243  0.08587146  0.77359657     0.09700
H567        H  0.23398088  0.07616061  0.76174145     0.07200
H568        H  0.27878478  0.11823185  0.69584754     0.07100
O569        O  0.22997631  0.79396766  0.68361638    -0.73400
O570        O  0.23611084  0.87718787  0.68921366    -0.73500
O571        O  0.23473293  0.83616151  0.64372146    -0.73500
O572        O  0.23111473  0.83417593  0.72696582    -0.73600
O573        O  0.27845101  0.82976049  0.72800494    -0.73500
O574        O  0.28197782  0.83298205  0.64650693    -0.73500
O575        O  0.28323269  0.87211878  0.69043876    -0.73500
O576        O  0.27731236  0.79041444  0.68530186    -0.73500
Ni577      Ni  0.23120812  0.83568921  0.68551820     1.25400
Ni578      Ni  0.28174733  0.83134535  0.68739953     1.25400
C579        C  0.25273207  0.77848310  0.68395910     0.88700
C580        C  0.26102516  0.88776413  0.69407133     0.88700
C581        C  0.25907426  0.83190453  0.63158799     0.88700
C582        C  0.25452850  0.83216853  0.74103622     0.88900
O583        O  0.25897857  0.68828366  0.78409774    -0.73400
O584        O  0.26001268  0.68967466  0.86541323    -0.73500
O585        O  0.25087799  0.64743684  0.82459535    -0.73500
O586        O  0.26673559  0.72949512  0.82466676    -0.73600
O587        O  0.22008619  0.73852478  0.82364086    -0.73500
O588        O  0.20465810  0.65787492  0.82735185    -0.73500
O589        O  0.21422610  0.70201940  0.86726536    -0.73500
O590        O  0.21218297  0.69627829  0.78344863    -0.73500
Ni591      Ni  0.26066329  0.68821343  0.82478745     1.25400
Ni592      Ni  0.21102027  0.69865640  0.82553724     1.25400
C593        C  0.23596388  0.69225496  0.77002957     0.88700
C594        C  0.23877771  0.69972252  0.87942675     0.88700
C595        C  0.22463935  0.63928694  0.82418952     0.88700
C596        C  0.24587197  0.74743457  0.82461680     0.88900
O597        O  0.27370939  0.73146667  0.68688637    -0.73400
O598        O  0.26978391  0.64852722  0.69041307    -0.73500
O599        O  0.27965425  0.68860412  0.64795828    -0.73500
O600        O  0.26445511  0.69151457  0.72829658    -0.73600
O601        O  0.21762156  0.69309824  0.72075436    -0.73500
O602        O  0.23356208  0.69334517  0.63795014    -0.73500
O603        O  0.22346402  0.65124195  0.68054143    -0.73500
O604        O  0.22689160  0.73404109  0.67946575    -0.73500
Ni605      Ni  0.27342504  0.68986934  0.68844806     1.25400
Ni606      Ni  0.22369399  0.69275381  0.67910257     1.25400
C607        C  0.25097874  0.74649139  0.68328273     0.88700
C608        C  0.24521921  0.63651738  0.68868467     0.88700
C609        C  0.25987572  0.69334619  0.62966326     0.88700
C610        C  0.23893266  0.69238078  0.73812191     0.88900
O611        O  0.27653016  0.78867164  0.82518429    -0.73400
O612        O  0.28789447  0.87065777  0.82321396    -0.73500
O613        O  0.28525416  0.82796354  0.86627616    -0.73500
O614        O  0.27932736  0.82942770  0.78464835    -0.73600
O615        O  0.23250562  0.83720298  0.78761719    -0.73500
O616        O  0.23851030  0.83387278  0.87125819    -0.73500
O617        O  0.24139554  0.87872003  0.82728234    -0.73500
O618        O  0.22965407  0.79589146  0.82834288    -0.73500
Ni619      Ni  0.28380564  0.82930527  0.82507355     1.25400
Ni620      Ni  0.23384248  0.83706453  0.82917669     1.25400
C621        C  0.25103119  0.77879676  0.82608355     0.88700
C622        C  0.26660931  0.88797902  0.82094569     0.88700
C623        C  0.26277353  0.82630739  0.88200201     0.88700
C624        C  0.25512258  0.83290479  0.77260447     0.88900
C625        C  0.24026975  0.60797935  0.70281472     0.04100
C626        C  0.21654683  0.60724376  0.72173360    -0.12000
C627        C  0.21983105  0.59287292  0.74763472     0.01600
C628        C  0.24667352  0.58139786  0.75323869    -0.10600
C629        C  0.26033488  0.56829162  0.73181900     0.04100
C630        C  0.26139324  0.58550164  0.70632462    -0.10000
H631        H  0.19807096  0.62079306  0.71864915     0.09700
H632        H  0.25594988  0.57943864  0.77369254     0.07200
H633        H  0.27830597  0.58257533  0.69082776     0.07100
C634        C  0.21607326  0.61016529  0.81312608     0.04100
C635        C  0.19795775  0.61177351  0.78923380    -0.12000
C636        C  0.19779598  0.58930961  0.76998816     0.01600
C637        C  0.19940856  0.56192023  0.78191295    -0.10600
C638        C  0.22101039  0.55788065  0.80232327     0.04100
C639        C  0.22881530  0.58270827  0.81931619    -0.10000
H640        H  0.19155883  0.63252077  0.78121559     0.09700
H641        H  0.19425673  0.54411557  0.76805253     0.07200
H642        H  0.24587642  0.58121589  0.83474553     0.07100
N643        N  0.24205486  0.51438511  0.77460695    -0.02500
C644        C  0.23888484  0.53054717  0.79979313     0.00100
C645        C  0.23387860  0.51255856  0.82257748    -0.22800
C646        C  0.22802567  0.48617204  0.81178238    -0.23000
C647        C  0.23109541  0.48776590  0.78255451     0.00000
H648        H  0.22842270  0.51911792  0.84408192     0.13800
H649        H  0.21927335  0.46866095  0.82398866     0.13800
N650        N  0.26674688  0.51734996  0.75530141    -0.02500
C651        C  0.27653798  0.54172731  0.74070805     0.00100
C652        C  0.30517664  0.53926383  0.73493990    -0.22800
C653        C  0.31373984  0.51298994  0.74445965    -0.23000
C654        C  0.28986658  0.49836761  0.75409518     0.00000
H655        H  0.31836985  0.55464290  0.72384245     0.13800
H656        H  0.33417736  0.50351829  0.73921611     0.13800
C657        C  0.29794744  0.41728001  0.73276721     0.04100
C658        C  0.30341175  0.44329951  0.74845272    -0.12000
C659        C  0.28807262  0.46896344  0.74071616     0.01600
C660        C  0.27338641  0.46782249  0.71491384    -0.10600
C661        C  0.25804041  0.44294663  0.70999657     0.04100
C662        C  0.27329411  0.41745130  0.71510647    -0.10000
H663        H  0.31909601  0.44373012  0.76535068     0.09700
H664        H  0.26579622  0.48754634  0.70553371     0.07200
H665        H  0.26434884  0.39735124  0.70803277     0.07100
C666        C  0.19986374  0.41597993  0.75200385     0.04100
C667        C  0.21206183  0.41964446  0.72455615    -0.12000
C668        C  0.22680067  0.44481652  0.71770853     0.01600
C669        C  0.21913330  0.46891871  0.73393533    -0.10600
C670        C  0.21826797  0.46481560  0.76324334     0.04100
C671        C  0.20613726  0.43789862  0.77258844    -0.10000
H672        H  0.21398403  0.40150096  0.71034346     0.09700
H673        H  0.22429566  0.49003251  0.72619381     0.07200
H674        H  0.20191560  0.43386504  0.79489872     0.07100
O675        O  0.31445573  0.29164932  0.71534915    -0.73400
O676        O  0.31488776  0.37353066  0.71196355    -0.73500
O677        O  0.35698804  0.32950242  0.70887806    -0.73500
O678        O  0.27439259  0.33293300  0.71851971    -0.73600
O679        O  0.28068527  0.33472726  0.76555121    -0.73500
O680        O  0.36400372  0.33184231  0.75561197    -0.73500
O681        O  0.32024384  0.37679470  0.75891884    -0.73500
O682        O  0.32104558  0.29331050  0.76240831    -0.73500
Ni683      Ni  0.31537625  0.33222893  0.71209543     1.25400
Ni684      Ni  0.32210699  0.33467003  0.76228200     1.25400
C685        C  0.31682472  0.27900254  0.73939961     0.88700
C686        C  0.31324689  0.38846874  0.73496080     0.88700
C687        C  0.37381579  0.32607105  0.73044100     0.88700
C688        C  0.26391584  0.33314727  0.74385335     0.88900
O689        O  0.21610364  0.18705293  0.76703607    -0.73400
O690        O  0.13396234  0.18571691  0.77147109    -0.73500
O691        O  0.17652637  0.14444117  0.76227289    -0.73500
O692        O  0.17477491  0.22773495  0.77547582    -0.73600
O693        O  0.17253803  0.23447903  0.72857000    -0.73500
O694        O  0.17135868  0.15294935  0.71592391    -0.73500
O695        O  0.13010037  0.19508683  0.72512265    -0.73500
O696        O  0.21318067  0.19332791  0.72004303    -0.73500
Ni697      Ni  0.17517075  0.18579505  0.77068669     1.25400
Ni698      Ni  0.17155551  0.19397050  0.72079951     1.25400
C699        C  0.22830386  0.19051358  0.74280497     0.88700
C700        C  0.11865319  0.19323541  0.75000767     0.88700
C701        C  0.17637375  0.13525051  0.73631547     0.88700
C702        C  0.17401503  0.24486184  0.75389105     0.88900
O703        O  0.21433999  0.33248246  0.72772737    -0.73400
O704        O  0.13155413  0.33280855  0.74384560    -0.73500
O705        O  0.17548338  0.37397408  0.73593562    -0.73500
O706        O  0.17195029  0.29188206  0.73409290    -0.73600
O707        O  0.17943939  0.28995081  0.78087195    -0.73500
O708        O  0.18784655  0.37384340  0.78165795    -0.73500
O709        O  0.14221377  0.33466645  0.78993653    -0.73500
O710        O  0.22306387  0.32945596  0.77428137    -0.73500
Ni711      Ni  0.17279346  0.33300160  0.73385373     1.25400
Ni712      Ni  0.18310511  0.33201453  0.78337304     1.25400
C713        C  0.23225191  0.33151969  0.74861948     0.88700
C714        C  0.12338524  0.33153748  0.77017322     0.88700
C715        C  0.18612514  0.38704036  0.75756427     0.88700
C716        C  0.17507580  0.27705811  0.75685734     0.88900
O717        O  0.31577240  0.23374501  0.76345435    -0.73400
O718        O  0.31691378  0.15072373  0.76177138    -0.73500
O719        O  0.35819969  0.19542573  0.76034246    -0.73500
O720        O  0.27509093  0.19112256  0.76436980    -0.73600
O721        O  0.27253993  0.19242156  0.71693626    -0.73500
O722        O  0.35443503  0.19572385  0.71305921    -0.73500
O723        O  0.31423634  0.15248092  0.71443030    -0.73500
O724        O  0.31285574  0.23436143  0.71598059    -0.73500
Ni725      Ni  0.31669999  0.19245716  0.76422843     1.25400
Ni726      Ni  0.31357190  0.19355587  0.71354310     1.25400
C727        C  0.31493343  0.24756089  0.73983242     0.88700
C728        C  0.31305451  0.13803431  0.73772383     0.88700
C729        C  0.36950138  0.19949439  0.73561228     0.88700
C730        C  0.26015155  0.19137469  0.74130793     0.88900
C731        C  0.69553503  0.23019590  0.91626485     0.04100
C732        C  0.71944497  0.21147810  0.91709487    -0.12000
C733        C  0.73481569  0.20711444  0.94268419     0.01600
C734        C  0.71961552  0.21314675  0.96739938    -0.10600
C735        C  0.70588620  0.23954675  0.96768330     0.04100
C736        C  0.69088400  0.24710479  0.94174647    -0.10000
H737        H  0.72799702  0.20320140  0.89725816     0.09700
H738        H  0.72729862  0.20439252  0.98736875     0.07200
H739        H  0.67623427  0.26493898  0.94151401     0.07100
C740        C  0.79520893  0.24593331  0.91329543     0.04100
C741        C  0.78088824  0.21985107  0.91858902    -0.12000
C742        C  0.76590231  0.21539837  0.94401070     0.01600
C743        C  0.77399984  0.23265659  0.96718910    -0.10600
C744        C  0.77783043  0.26154259  0.96179812     0.04100
C745        C  0.79076543  0.26826975  0.93429548    -0.10000
H746        H  0.77783498  0.20464150  0.90145389     0.09700
H747        H  0.76853492  0.22619685  0.98860988     0.07200
H748        H  0.79684703  0.28994349  0.92924202     0.07100
N749        N  0.73082335  0.25588592  0.01334631    -0.02500
C750        C  0.72293342  0.24365641  0.03909721     0.00100
C751        C  0.69374540  0.23980880  0.03957362    -0.22800
C752        C  0.68345166  0.24775856  0.01332529    -0.23000
C753        C  0.70645662  0.25502004  0.99620281     0.00000
H754        H  0.68121183  0.22994318  0.05625695     0.13800
H755        H  0.66216855  0.24276486  0.00587058     0.13800
N756        N  0.75310913  0.27715044  0.01019473    -0.02500
C757        C  0.75492934  0.30189090  0.02702667     0.00100
C758        C  0.76698197  0.32307048  0.01015360    -0.22800
C759        C  0.77526722  0.31127045  0.98443464    -0.23000
C760        C  0.76760997  0.28287048  0.98474561     0.00000
H761        H  0.77386187  0.34382487  0.01762288     0.13800
H762        H  0.78777920  0.32197290  0.96823874     0.13800
C763        C  0.75244651  0.21334545  0.11086865     0.04100
C764        C  0.77903658  0.22754495  0.10939482    -0.12000
C765        C  0.78643788  0.24316711  0.08498385     0.01600
C766        C  0.77176246  0.23564572  0.05984817    -0.10600
C767        C  0.74241493  0.23200613  0.06231594     0.04100
C768        C  0.73276416  0.21849970  0.08813858    -0.10000
H769        H  0.79177570  0.23004759  0.12850106     0.09700
H770        H  0.78037623  0.24175783  0.03938735     0.07200
H771        H  0.71067251  0.21244053  0.09082458     0.07100
C772        C  0.76575494  0.31199645  0.11128918     0.04100
C773        C  0.75279823  0.31638079  0.08328981    -0.12000
C774        C  0.76512368  0.30242247  0.05824417     0.01600
C775        C  0.79168148  0.28969524  0.06268285    -0.10600
C776        C  0.79425186  0.27429511  0.08789909     0.04100
C777        C  0.78568595  0.28918425  0.11276705    -0.10000
H778        H  0.73436770  0.33008386  0.08106577     0.09700
H779        H  0.80367415  0.28240321  0.04424327     0.07200
H780        H  0.79129411  0.28059800  0.13346738     0.07100
C781        C  0.40286935  0.31099912  0.72499976     0.04100
C782        C  0.40230311  0.28896177  0.70406303    -0.12000
C783        C  0.42741413  0.27386137  0.69649412     0.01600
C784        C  0.45260675  0.28816219  0.70218962    -0.10600
C785        C  0.45505511  0.29886634  0.72989690     0.04100
C786        C  0.42971877  0.31356570  0.74055572    -0.10000
H787        H  0.38189459  0.28129375  0.69643208     0.09700
H788        H  0.47173772  0.28108801  0.69118924     0.07200
H789        H  0.43094747  0.32656376  0.75959065     0.07100
C790        C  0.39899045  0.21197707  0.73170658     0.04100
C791        C  0.40376169  0.22703181  0.70599973    -0.12000
C792        C  0.42913252  0.24216462  0.70189689     0.01600
C793        C  0.45266513  0.23286533  0.71824129    -0.10600
C794        C  0.44746094  0.22783435  0.74701906     0.04100
C795        C  0.42017867  0.21503892  0.75355610    -0.10000
H796        H  0.38623649  0.23098962  0.69149450     0.09700
H797        H  0.47400842  0.23889437  0.71197575     0.07200
H798        H  0.41517742  0.20809235  0.77497023     0.07100
N799        N  0.50168398  0.27224066  0.74458274    -0.02500
C800        C  0.52659013  0.27711546  0.72860506     0.00100
C801        C  0.52736324  0.30497636  0.71968665    -0.22800
C802        C  0.50274722  0.31785971  0.72917727    -0.23000
C803        C  0.48541929  0.29741763  0.74203796     0.00000
H804        H  0.54404186  0.31495623  0.70717418     0.13800
H805        H  0.49586029  0.33878250  0.72219480     0.13800
N806        N  0.49633493  0.24908319  0.76498787    -0.02500
C807        C  0.46905494  0.23801404  0.76930097     0.00100
C808        C  0.46368008  0.23550174  0.79812726    -0.22800
C809        C  0.48819028  0.24247319  0.81232032    -0.23000
C810        C  0.50930807  0.24740817  0.79229690     0.00000
H811        H  0.44449671  0.22749298  0.80815106     0.13800
H812        H  0.49160279  0.23811819  0.83475497     0.13800
C813        C  0.59135614  0.23026948  0.70096743     0.04100
C814        C  0.57055755  0.25323358  0.69970940    -0.12000
C815        C  0.55172047  0.25729090  0.72370908     0.01600
C816        C  0.56194255  0.24570009  0.74775117    -0.10600
C817        C  0.57232326  0.21785740  0.74706389     0.04100
C818        C  0.58741094  0.20961526  0.72277222    -0.10000
H819        H  0.57031415  0.26799045  0.68196645     0.09700
H820        H  0.55967059  0.25821284  0.76674735     0.07200
H821        H  0.59967580  0.19002624  0.72338351     0.07100
C822        C  0.58774188  0.22222919  0.81487707     0.04100
C823        C  0.58946752  0.20221805  0.79238245    -0.12000
C824        C  0.56745414  0.20015349  0.77266874     0.01600
C825        C  0.53987437  0.20453270  0.78320641    -0.10600
C826        C  0.53614423  0.22932870  0.79961003     0.04100
C827        C  0.56071558  0.23777893  0.81721206    -0.10000
H828        H  0.61011157  0.19393707  0.78593647     0.09700
H829        H  0.52238999  0.19799646  0.76955477     0.07200
H830        H  0.55933808  0.25648267  0.83067260     0.07100
C831        C  0.90001670  0.23141041  0.70897683     0.04100
C832        C  0.92432792  0.24940781  0.70392257    -0.12000
C833        C  0.95069701  0.24293187  0.71814724     0.01600
C834        C  0.95213287  0.21635749  0.73144211    -0.10600
C835        C  0.92815460  0.20859472  0.74708756     0.04100
C836        C  0.90195748  0.21247798  0.73264759    -0.10000
H837        H  0.92300949  0.26715362  0.68922178     0.09700
H838        H  0.97275285  0.20819949  0.73794938     0.07200
H839        H  0.88262179  0.20343144  0.74154981     0.07100
C840        C  0.89940929  0.24542389  0.80790464     0.04100
C841        C  0.90503848  0.21902322  0.79420983    -0.12000
C842        C  0.93028778  0.21479935  0.77863567     0.01600
C843        C  0.95352602  0.23205906  0.78665916    -0.10600
C844        C  0.94785472  0.26096919  0.78937096     0.04100
C845        C  0.92026556  0.26778707  0.80250377    -0.10000
H846        H  0.88806051  0.20355528  0.79166680     0.09700
H847        H  0.97496724  0.22588778  0.78071647     0.07200
H848        H  0.91493015  0.28955698  0.80793527     0.07100
N849        N  0.99848382  0.25906347  0.73801691    -0.02500
C850        C  0.02259773  0.24624067  0.72554349     0.00100
C851        C  0.01887714  0.24330207  0.69663227    -0.22800
C852        C  0.99197813  0.25271260  0.69045449    -0.23000
C853        C  0.97842342  0.25898096  0.71600001     0.00000
H854        H  0.03390006  0.23417565  0.68160954     0.13800
H855        H  0.98156303  0.24911165  0.67015095     0.13800
N856        N  0.99640185  0.27708354  0.76372232    -0.02500
C857        C  0.01183160  0.30288949  0.76709304     0.00100
C858        C  0.99367189  0.32360979  0.77766387    -0.22800
C859        C  0.96850484  0.31083681  0.78517316    -0.23000
C860        C  0.97038269  0.28237011  0.77802642     0.00000
H861        H  0.99994396  0.34471624  0.78470595     0.13800
H862        H  0.95161382  0.32102825  0.79717866     0.13800
C863        C  0.09044808  0.20727819  0.75623077     0.04100
C864        C  0.06676809  0.21120895  0.73668662    -0.12000
C865        C  0.05029370  0.23708267  0.73911190     0.01600
C866        C  0.06517614  0.25841921  0.75099027    -0.10600
C867        C  0.07861114  0.25268110  0.77683275     0.04100
C868        C  0.09156902  0.22616506  0.77980771    -0.10000
H869        H  0.06221131  0.19573480  0.72017687     0.09700
H870        H  0.06209831  0.27930050  0.74218380     0.07200
H871        H  0.10576565  0.22265738  0.79768044     0.07100
C872        C  0.09470139  0.31861902  0.77938585     0.04100
C873        C  0.06553235  0.32402030  0.76972419    -0.12000
C874        C  0.04203717  0.30581141  0.77994838     0.01600
C875        C  0.04921358  0.28552544  0.80075058    -0.10600
C876        C  0.07690614  0.27459611  0.79921844     0.04100
C877        C  0.09870571  0.29434854  0.79662359    -0.10000
H878        H  0.06157028  0.34006348  0.75362579     0.09700
H879        H  0.03261033  0.27111351  0.80801614     0.07200
H880        H  0.12016042  0.28677725  0.80088588     0.07100
O881        O  0.67354723  0.21029803  0.79042668    -0.73400
O882        O  0.67807330  0.20886558  0.87285538    -0.73500
O883        O  0.63355915  0.20578468  0.83218478    -0.73500
O884        O  0.71602189  0.21370595  0.83003738    -0.73600
O885        O  0.71135953  0.26094187  0.83165958    -0.73500
O886        O  0.62772203  0.25276121  0.83260798    -0.73500
O887        O  0.67326142  0.25592873  0.87527862    -0.73500
O888        O  0.66900512  0.25754789  0.79128860    -0.73500
Ni889      Ni  0.67511780  0.20811901  0.83159764     1.25400
Ni890      Ni  0.66979883  0.25846639  0.83308076     1.25400
C891        C  0.67143057  0.23411012  0.77708267     0.88700
C892        C  0.68025123  0.23211477  0.88733233     0.88700
C893        C  0.61701736  0.22760704  0.82904024     0.88700
C894        C  0.72736102  0.23865929  0.83036601     0.88900
O895        O  0.77587384  0.25762182  0.68647455    -0.73400
O896        O  0.85905029  0.25668189  0.68767766    -0.73500
O897        O  0.81530272  0.25355695  0.64387611    -0.73500
O898        O  0.81688531  0.26105336  0.72689263    -0.73600
O899        O  0.81620125  0.21369066  0.73126672    -0.73500
O900        O  0.81449775  0.20645859  0.64915690    -0.73500
O901        O  0.85726212  0.20944835  0.69169906    -0.73500
O902        O  0.77545070  0.21027338  0.69111729    -0.73500
Ni903      Ni  0.81714963  0.25892428  0.68566033     1.25400
Ni904      Ni  0.81616164  0.20836616  0.69057427     1.25400
C905        C  0.76219614  0.23408164  0.68978665     0.88700
C906        C  0.87128733  0.23288829  0.69410828     0.88700
C907        C  0.81093999  0.22857341  0.63316448     0.88700
C908        C  0.81602508  0.23861599  0.74257178     0.88900
O909        O  0.71774220  0.20990619  0.69295880    -0.73400
O910        O  0.63583364  0.20824781  0.68844307    -0.73500
O911        O  0.68107338  0.20793696  0.64979417    -0.73500
O912        O  0.67403125  0.21000902  0.73183682    -0.73600
O913        O  0.67278500  0.25747374  0.73066309    -0.73500
O914        O  0.68034123  0.25532665  0.64753086    -0.73500
O915        O  0.63424711  0.25567030  0.68695629    -0.73500
O916        O  0.71683971  0.25744604  0.69128277    -0.73500
Ni917      Ni  0.67695243  0.20742169  0.69069707     1.25400
Ni918      Ni  0.67575283  0.25817295  0.68896250     1.25400
C919        C  0.73078464  0.23391007  0.69165070     0.88700
C920        C  0.62139954  0.23157790  0.68957134     0.88700
C921        C  0.68518012  0.23104811  0.63558931     0.88700
C922        C  0.67257809  0.23401301  0.74499803     0.88900
O923        O  0.81306942  0.26587915  0.78594109    -0.73400
O924        O  0.81104796  0.27156071  0.86928907    -0.73500
O925        O  0.85530177  0.27126438  0.82445157    -0.73500
O926        O  0.77137439  0.26599786  0.82774034    -0.73600
O927        O  0.77454396  0.21868952  0.83051309    -0.73500
O928        O  0.85685647  0.22411869  0.82806007    -0.73500
O929        O  0.81474552  0.22439516  0.87095983    -0.73500
O930        O  0.81561913  0.21850962  0.78916954    -0.73500
Ni931      Ni  0.81288713  0.27048537  0.82707396     1.25400
Ni932      Ni  0.81576892  0.21996873  0.83005821     1.25400
C933        C  0.81481097  0.24122464  0.77403526     0.88700
C934        C  0.80873080  0.24808990  0.88352002     0.88700
C935        C  0.86950171  0.24772872  0.82177704     0.88700
C936        C  0.75925245  0.24137142  0.82944606     0.88900
loop_ 
_geom_bond_atom_site_label_1 
_geom_bond_atom_site_label_2 
_geom_bond_distance 
_geom_bond_site_symmetry_2 
_ccdc_geom_bond_type 
C1            C2   1.434       .  A
C1            C6   1.415       .  A
C1          C921   1.514       .  S
C2            C3   1.442       .  A
C2            H7   1.080       .  S
C3            C4   1.389       .  A
C3           C20   1.529       .  S
C4            C5   1.412       .  A
C4            H8   1.080       .  S
C5            C6   1.404       .  A
C5           C12   1.511       .  S
C6            H9   1.083       .  S
C10          C11   1.423       .  A
C10          C15   1.450       .  A
C10         C907   1.535       .  S
C11          C12   1.413       .  A
C11          H16   1.083       .  S
C12          C13   1.388       .  A
C13          C14   1.399       .  A
C13          H17   1.084       .  S
C14          C15   1.449       .  A
C14          C30   1.523       .  S
C15          H18   1.082       .  S
N19          C23   1.416       .  A
N19          C20   1.393       .  A
N19          N26   1.465       .  S
C20          C21   1.379       .  A
C21          C22   1.369       .  A
C21          H24   1.081       .  S
C22          C23   1.383       .  A
C22          H25   1.083       .  S
C23          C37   1.546       .  S
N26          C30   1.402       .  A
N26          C27   1.397       .  A
C27          C28   1.372       .  A
C27          C44   1.508       .  S
C28          C29   1.375       .  A
C28          H31   1.082       .  S
C29          C30   1.391       .  A
C29          H32   1.083       .  S
C33          C34   1.412       .  A
C33          C38   1.462       .  A
C33          C63   1.537       .  S
C34          C35   1.386       .  A
C34          H39   1.085       .  S
C35          C36   1.396       .  A
C35          C46   1.476       .  S
C36          C37   1.404       .  A
C36          H40   1.085       .  S
C37          C38   1.469       .  A
C38          H41   1.082       .  S
C42          C43   1.449       .  A
C42          C47   1.419       .  A
C42         C105   1.501       .  S
C43          C44   1.435       .  A
C43          H48   1.082       .  S
C44          C45   1.343       .  A
C45          C46   1.395       .  A
C45          H49   1.068       .  S
C46          C47   1.393       .  A
C47          H50   1.083       .  S
O51         Ni59   1.966       .  S
O51          C61   1.290       .  A
O52         Ni59   1.982       .  S
O52          C62   1.292       .  A
O53         Ni59   1.984       .  S
O53          C63   1.290       .  A
O54         Ni59   1.948       .  S
O54          C64   1.288       .  A
O55         Ni60   1.938       .  S
O55          C64   1.283       .  A
O56         Ni60   1.945       .  S
O56          C63   1.291       .  A
O57         Ni60   1.930       .  S
O57          C62   1.285       .  A
O58         Ni60   1.938       .  S
O58          C61   1.284       .  A
Ni59        Ni60   2.374       .  S
C61         C103   1.512       .  S
C62         C157   1.527       .  S
C64          C89   1.499       .  S
O65         Ni73   1.952       .  S
O65          C75   1.288       .  A
O66         Ni73   1.948       .  S
O66          C76   1.285       .  A
O67         Ni73   1.926       .  S
O67          C77   1.285       .  A
O68         Ni73   1.903       .  S
O68          C78   1.279       .  A
O69         Ni74   1.953       .  S
O69          C78   1.287       .  A
O70         Ni74   1.974       .  S
O70          C77   1.290       .  A
O71         Ni74   1.923       .  S
O71          C76   1.285       .  A
O72         Ni74   1.921       .  S
O72          C75   1.281       .  A
Ni73        Ni74   2.380       .  S
C75         C106   1.492       .  S
C76         C763   1.504       .  S
C77         C139   1.516       .  S
C78          C92   1.481       .  S
O79         Ni87   1.932       .  S
O79          C89   1.282       .  A
O80         Ni87   1.965       .  S
O80          C90   1.295       .  A
O81         Ni87   1.977       .  S
O81          C91   1.291       .  A
O82         Ni87   1.949       .  S
O82          C92   1.286       .  A
O83         Ni88   1.904       .  S
O83          C92   1.279       .  A
O84         Ni88   1.931       .  S
O84          C91   1.287       .  A
O85         Ni88   1.987       .  S
O85          C90   1.292       .  A
O86         Ni88   1.958       .  S
O86          C89   1.289       .  A
Ni87        Ni88   2.375       .  S
C90         C772   1.553       .  S
C91         C166   1.531       .  S
O93        Ni101   1.942       .  S
O93         C103   1.285       .  A
O94        Ni101   1.935       .  S
O94         C104   1.287       .  A
O95        Ni101   1.931       .  S
O95         C105   1.287       .  A
O96        Ni101   1.938       .  S
O96         C106   1.283       .  A
O97        Ni102   1.936       .  S
O97         C106   1.286       .  A
O98        Ni102   1.944       .  S
O98         C105   1.284       .  A
O99        Ni102   1.968       .  S
O99         C104   1.289       .  A
O100       Ni102   1.967       .  S
O100        C103   1.290       .  A
Ni101      Ni102   2.378       .  S
C104        C148   1.519       .  S
C107        C108   1.421       .  A
C107        C112   1.458       .  A
C107        C283   1.515       .  S
C108        C109   1.389       .  A
C108        H113   1.083       .  S
C109        C110   1.389       .  A
C109        C118   1.472       .  S
C110        C111   1.335       .  A
C110        H114   1.075       .  S
C111        C112   1.450       .  A
C111        C126   1.516       .  S
C112        H115   1.082       .  S
C116        C117   1.411       .  A
C116        C121   1.456       .  A
C116        C310   1.529       .  S
C117        C118   1.385       .  A
C117        H122   1.085       .  S
C118        C119   1.396       .  A
C119        C120   1.405       .  A
C119        H123   1.084       .  S
C120        C121   1.465       .  A
C120        C133   1.540       .  S
C121        H124   1.082       .  S
N125        C129   1.418       .  A
N125        C126   1.417   1_545  A
N125        N132   1.494       .  S
C126        C127   1.372       .  A
C127        C128   1.361   1_565  A
C127        H130   1.083       .  S
C128        C129   1.383       .  A
C128        H131   1.084       .  S
C129        C143   1.535       .  S
N132        C136   1.419       .  A
N132        C133   1.421   1_545  A
C133        C134   1.384   1_565  A
C134        C135   1.362       .  A
C134        H137   1.084       .  S
C135        C136   1.371       .  A
C135        H138   1.083       .  S
C136        C152   1.522       .  S
C139        C140   1.410       .  A
C139        C144   1.450       .  A
C140        C141   1.384       .  A
C140        H145   1.085       .  S
C141        C142   1.401       .  A
C141        C150   1.476       .  S
C142        C143   1.407       .  A
C142        H146   1.084       .  S
C143        C144   1.458       .  A
C144        H147   1.082       .  S
C148        C149   1.422       .  A
C148        C153   1.462       .  A
C149        C150   1.395       .  A
C149        H154   1.083       .  S
C150        C151   1.388       .  A
C151        C152   1.333       .  A
C151        H155   1.070       .  S
C152        C153   1.452       .  A
C153        H156   1.082       .  S
C157        C158   1.422       .  A
C157        C162   1.443       .  A
C158        C159   1.412       .  A
C158        H163   1.083       .  S
C159        C160   1.391       .  A
C159        C168   1.510       .  S
C160        C161   1.393       .  A
C160        H164   1.084       .  S
C161        C162   1.445       .  A
C161        C179   1.513       .  S
C162        H165   1.082       .  S
C166        C167   1.419       .  A
C166        C171   1.444       .  A
C167        C168   1.406       .  A
C167        H172   1.083       .  S
C168        C169   1.406       .  A
C169        C170   1.387       .  A
C169        H173   1.081       .  S
C170        C171   1.455       .  A
C170        C186   1.533       .  S
C171        H174   1.080       .  S
N175        C179   1.401       .  A
N175        C176   1.411       .  A
N175        N182   1.475       .  S
C176        C177   1.374       .  A
C176        C191   1.523       .  S
C177        C178   1.370       .  A
C177        H180   1.082       .  S
C178        C179   1.385       .  A
C178        H181   1.083       .  S
N182        C186   1.402       .  A
N182        C183   1.407       .  A
C183        C184   1.380       .  A
C183        C202   1.532       .  S
C184        C185   1.364       .  A
C184        H187   1.083       .  S
C185        C186   1.379       .  A
C185        H188   1.081       .  S
C189        C190   1.459       .  A
C189        C194   1.420       .  A
C189        C296   1.519       .  S
C190        C191   1.449       .  A
C190        H195   1.081       .  S
C191        C192   1.338       .  A
C192        C193   1.392       .  A
C192        H196   1.075       .  S
C193        C194   1.396       .  A
C193        C200   1.478       .  S
C194        H197   1.083       .  S
C198        C199   1.408       .  A
C198        C203   1.448       .  A
C198        C269   1.513       .  S
C199        C200   1.385       .  A
C199        H204   1.085       .  S
C200        C201   1.401       .  A
C201        C202   1.406       .  A
C201        H205   1.084       .  S
C202        C203   1.456       .  A
C203        H206   1.082       .  S
C207        C208   1.418       .  A
C207        C212   1.441       .  A
C207        C268   1.524       .  S
C208        C209   1.399       .  A
C208        H213   1.083       .  S
C209        C210   1.405       .  A
C209        C220   1.509       .  S
C210        C211   1.389       .  A
C210        H214   1.082       .  S
C211        C212   1.453       .  A
C211        C229   1.529       .  S
C212        H215   1.080       .  S
C216        C217   1.436       .  A
C216        C221   1.421       .  A
C216        C311   1.516       .  S
C217        C218   1.437       .  A
C217        H222   1.082       .  S
C218        C219   1.394       .  A
C218        C233   1.502       .  S
C219        C220   1.389       .  A
C219        H223   1.084       .  S
C220        C221   1.414       .  A
C221        H224   1.083       .  S
N225        C229   1.400       .  A
N225        C226   1.406   1_655  A
N225        N232   1.475       .  S
C226        C227   1.380   1_455  A
C226        C243   1.531       .  S
C227        C228   1.363       .  A
C227        H230   1.083   1_655  S
C228        C229   1.379       .  A
C228        H231   1.081       .  S
N232        C236   1.410   1_655  A
N232        C233   1.398       .  A
C233        C234   1.385       .  A
C234        C235   1.367   1_655  A
C234        H237   1.083       .  S
C235        C236   1.374       .  A
C235        H238   1.082       .  S
C236        C250   1.514       .  S
C239        C240   1.411       .  A
C239        C244   1.445       .  A
C239        C389   1.514       .  S
C240        C241   1.385       .  A
C240        H245   1.085       .  S
C241        C242   1.400       .  A
C241        C252   1.475       .  S
C242        C243   1.406       .  A
C242        H246   1.084       .  S
C243        C244   1.454       .  A
C244        H247   1.082       .  S
C248        C249   1.453       .  A
C248        C253   1.420       .  A
C248        C403   1.512       .  S
C249        C250   1.444       .  A
C249        H254   1.082       .  S
C250        C251   1.339       .  A
C251        C252   1.391       .  A
C251        H255   1.071       .  S
C252        C253   1.397       .  A
C253        H256   1.083       .  S
O257       Ni265   1.985       .  S
O257        C267   1.295       .  A
O258       Ni265   1.983       .  S
O258        C268   1.293       .  A
O259       Ni265   1.939       .  S
O259        C269   1.287       .  A
O260       Ni265   1.913       .  S
O260        C270   1.277       .  A
O261       Ni266   1.950       .  S
O261        C270   1.289       .  A
O262       Ni266   1.962       .  S
O262        C269   1.287       .  A
O263       Ni266   1.912       .  S
O263        C268   1.282       .  A
O264       Ni266   1.912       .  S
O264        C267   1.279       .  A
Ni265      Ni266   2.376       .  S
C267        C298   1.509       .  S
C270        C309   1.485       .  S
O271       Ni279   1.962       .  S
O271        C281   1.290       .  A
O272       Ni279   1.973       .  S
O272        C282   1.290       .  A
O273       Ni279   1.973       .  S
O273        C283   1.290       .  A
O274       Ni279   1.964       .  S
O274        C284   1.291       .  A
O275       Ni280   1.941       .  S
O275        C284   1.284       .  A
O276       Ni280   1.917       .  S
O276        C283   1.284       .  A
O277       Ni280   1.907       .  S
O277        C282   1.281       .  A
O278       Ni280   1.920       .  S
O278        C281   1.280       .  A
Ni279      Ni280   2.375       .  S
C281        C312   1.497       .  S
C282        C322   1.510       .  S
C284        C295   1.510       .  S
O285       Ni293   1.946       .  S
O285        C295   1.285       .  A
O286       Ni293   1.949       .  S
O286        C296   1.290       .  A
O287       Ni293   1.987       .  S
O287        C297   1.292       .  A
O288       Ni293   1.975       .  S
O288        C298   1.290       .  A
O289       Ni294   1.926       .  S
O289        C298   1.284       .  A
O290       Ni294   1.937       .  S
O290        C297   1.287       .  A
O291       Ni294   1.958       .  S
O291        C296   1.286       .  A
O292       Ni294   1.958       .  S
O292        C295   1.290       .  A
Ni293      Ni294   2.373       .  S
C297        C313   1.531       .  S
O299       Ni307   1.944       .  S
O299        C309   1.288       .  A
O300       Ni307   1.981       .  S
O300        C310   1.291       .  A
O301       Ni307   1.971       .  S
O301        C311   1.290       .  A
O302       Ni307   1.954       .  S
O302        C312   1.287       .  A
O303       Ni308   1.928       .  S
O303        C312   1.284       .  A
O304       Ni308   1.924       .  S
O304        C311   1.284       .  A
O305       Ni308   1.934       .  S
O305        C310   1.288       .  A
O306       Ni308   1.922       .  S
O306        C309   1.279       .  A
Ni307      Ni308   2.378       .  S
C313        C314   1.458       .  A
C313        C318   1.410       .  A
C314        C315   1.467       .  A
C314        H319   1.082       .  S
C315        C316   1.403       .  A
C315        C332   1.541       .  S
C316        C317   1.394       .  A
C316        H320   1.085       .  S
C317        C318   1.387       .  A
C317        C326   1.469       .  S
C318        H321   1.085       .  S
C322        C323   1.454       .  A
C322        C327   1.419       .  A
C323        C324   1.445       .  A
C323        H328   1.082       .  S
C324        C325   1.338       .  A
C324        C342   1.512       .  S
C325        C326   1.391       .  A
C325        H329   1.073       .  S
C326        C327   1.385       .  A
C327        H330   1.083       .  S
N331        C335   1.406       .  A
N331        C332   1.417       .  A
N331        N338   1.471       .  S
C332        C333   1.380       .  A
C333        C334   1.364       .  A
C333        H336   1.084       .  S
C334        C335   1.379       .  A
C334        H337   1.080       .  S
C335        C349   1.541       .  S
N338        C342   1.408       .  A
N338        C339   1.399       .  A
C339        C340   1.387       .  A
C339        C358   1.509       .  S
C340        C341   1.370       .  A
C340        H343   1.083       .  S
C341        C342   1.373       .  A
C341        H344   1.082       .  S
C345        C346   1.416       .  A
C345        C350   1.443       .  A
C345        C374   1.529       .  S
C346        C347   1.403       .  A
C346        H351   1.083       .  S
C347        C348   1.412       .  A
C347        C356   1.510       .  S
C348        C349   1.387       .  A
C348        H352   1.080       .  S
C349        C350   1.455       .  A
C350        H353   1.080       .  S
C354        C355   1.423       .  A
C354        C359   1.441       .  A
C354        C416   1.523       .  S
C355        C356   1.416       .  A
C355        H360   1.083       .  S
C356        C357   1.388       .  A
C357        C358   1.397       .  A
C357        H361   1.084       .  S
C358        C359   1.440       .  A
C359        H362   1.082       .  S
O363       Ni371   1.937       .  S
O363        C373   1.285       .  A
O364       Ni371   1.969       .  S
O364        C374   1.290       .  A
O365       Ni371   1.961       .  S
O365        C375   1.288       .  A
O366       Ni371   1.924       .  S
O366        C376   1.283       .  A
O367       Ni372   1.908       .  S
O367        C376   1.277       .  A
O368       Ni372   1.922       .  S
O368        C375   1.285       .  A
O369       Ni372   1.931       .  S
O369        C374   1.288       .  A
O370       Ni372   1.921       .  S
O370        C373   1.281       .  A
Ni371      Ni372   2.382       .  S
C373        C404   1.479       .  S
C375        C419   1.518       .  S
C376        C418   1.464       .  S
O377       Ni385   1.957       .  S
O377        C387   1.289       .  A
O378       Ni385   1.971       .  S
O378        C388   1.290       .  A
O379       Ni385   1.967       .  S
O379        C389   1.288       .  A
O380       Ni385   1.939       .  S
O380        C390   1.286       .  A
O381       Ni386   1.916       .  S
O381        C390   1.279       .  A
O382       Ni386   1.925       .  S
O382        C389   1.286       .  A
O383       Ni386   1.935       .  S
O383        C388   1.287       .  A
O384       Ni386   1.947       .  S
O384        C387   1.285       .  A
Ni385      Ni386   2.378       .  S
C387        C401   1.510       .  S
C388        C501   1.523       .  S
C390        C415   1.480       .  S
O391       Ni399   1.958       .  S
O391        C401   1.290       .  A
O392       Ni399   1.967       .  S
O392        C402   1.288       .  A
O393       Ni399   1.941       .  S
O393        C403   1.288       .  A
O394       Ni399   1.922       .  S
O394        C404   1.281       .  A
O395       Ni400   1.931       .  S
O395        C404   1.284       .  A
O396       Ni400   1.954       .  S
O396        C403   1.286       .  A
O397       Ni400   1.944       .  S
O397        C402   1.289       .  A
O398       Ni400   1.944       .  S
O398        C401   1.285       .  A
Ni399      Ni400   2.379       .  S
C402        C428   1.524       .  S
O405       Ni413   1.919       .  S
O405        C415   1.279       .  A
O406       Ni413   1.941       .  S
O406        C416   1.289       .  A
O407       Ni413   1.956       .  S
O407        C417   1.286       .  A
O408       Ni413   1.925       .  S
O408        C418   1.284       .  A
O409       Ni414   1.905       .  S
O409        C418   1.277       .  A
O410       Ni414   1.931       .  S
O410        C417   1.288       .  A
O411       Ni414   1.963       .  S
O411        C416   1.288       .  A
O412       Ni414   1.938       .  S
O412        C415   1.286       .  A
Ni413      Ni414   2.383       .  S
C417        C510   1.518       .  S
C419        C420   1.437       .  A
C419        C424   1.416       .  A
C420        C421   1.448       .  A
C420        H425   1.080       .  S
C421        C422   1.387       .  A
C421        C441   1.532       .  S
C422        C423   1.411       .  A
C422        H426   1.080       .  S
C423        C424   1.400       .  A
C423        C432   1.509       .  S
C424        H427   1.083       .  S
C428        C429   1.442       .  A
C428        C433   1.423       .  A
C429        C430   1.440       .  A
C429        H434   1.082       .  S
C430        C431   1.397       .  A
C430        C445   1.509       .  S
C431        C432   1.386       .  A
C431        H435   1.085       .  S
C432        C433   1.417       .  A
C433        H436   1.083       .  S
N437        C441   1.399       .  A
N437        C438   1.411       .  A
N437        N444   1.466       .  S
C438        C439   1.380       .  A
C438        C453   1.531       .  S
C439        C440   1.364       .  A
C439        H442   1.084       .  S
C440        C441   1.379       .  A
C440        H443   1.080       .  S
N444        C448   1.404       .  A
N444        C445   1.397       .  A
C445        C446   1.389       .  A
C446        C447   1.372       .  A
C446        H449   1.083       .  S
C447        C448   1.372       .  A
C447        H450   1.082       .  S
C448        C464   1.509       .  S
C451        C452   1.450       .  A
C451        C456   1.412       .  A
C451        C609   1.519       .  S
C452        C453   1.458       .  A
C452        H457   1.082       .  S
C453        C454   1.407       .  A
C454        C455   1.398       .  A
C454        H458   1.084       .  S
C455        C456   1.385       .  A
C455        C462   1.474       .  S
C456        H459   1.085       .  S
C460        C461   1.423       .  A
C460        C465   1.452       .  A
C460        C581   1.509       .  S
C461        C462   1.393       .  A
C461        H466   1.083       .  S
C462        C463   1.388       .  A
C463        C464   1.337       .  A
C463        H467   1.078       .  S
C464        C465   1.441       .  A
C465        H468   1.081       .  S
C469        C470   1.415       .  A
C469        C474   1.430       .  A
C469        C594   1.506       .  S
C470        C471   1.399       .  A
C470        H475   1.084       .  S
C471        C472   1.407       .  A
C471        C482   1.509       .  S
C472        C473   1.390       .  A
C472        H476   1.079       .  S
C473        C474   1.441       .  A
C473        C491   1.519       .  S
C474        H477   1.081       .  S
C478        C479   1.450       .  A
C478        C483   1.423       .  A
C478        C623   1.538       .  S
C479        C480   1.452       .  A
C479        H484   1.082       .  S
C480        C481   1.394       .  A
C480        C495   1.523       .  S
C481        C482   1.388       .  A
C481        H485   1.084       .  S
C482        C483   1.413       .  A
C483        H486   1.083       .  S
N487        C491   1.389   1_554  A
N487        C488   1.395       .  A
N487        N494   1.453       .  S
C488        C489   1.384       .  A
C488        C505   1.510       .  S
C489        C490   1.371   1_554  A
C489        H492   1.083       .  S
C490        C491   1.379       .  A
C490        H493   1.081       .  S
N494        C498   1.392       .  A
N494        C495   1.399   1_554  A
C495        C496   1.384   1_556  A
C496        C497   1.374       .  A
C496        H499   1.083       .  S
C497        C498   1.379       .  A
C497        H500   1.081       .  S
C498        C512   1.531       .  S
C501        C502   1.423       .  A
C501        C506   1.440       .  A
C502        C503   1.415       .  A
C502        H507   1.083       .  S
C503        C504   1.391       .  A
C503        C514   1.510       .  S
C504        C505   1.396       .  A
C504        H508   1.084       .  S
C505        C506   1.439       .  A
C506        H509   1.082       .  S
C510        C511   1.440       .  A
C510        C515   1.416       .  A
C511        C512   1.446       .  A
C511        H516   1.081       .  S
C512        C513   1.389       .  A
C513        C514   1.409       .  A
C513        H517   1.079       .  S
C514        C515   1.402       .  A
C515        H518   1.083       .  S
C519        C520   1.416       .  A
C519        C524   1.436       .  A
C519        C580   1.516       .  S
C520        C521   1.398       .  A
C520        H525   1.083       .  S
C521        C522   1.411       .  A
C521        C530   1.509       .  S
C522        C523   1.388       .  A
C522        H526   1.080       .  S
C523        C524   1.447       .  A
C523        C548   1.530       .  S
C524        H527   1.080       .  S
C528        C529   1.424       .  A
C528        C533   1.453       .  A
C528        C622   1.544       .  S
C529        C530   1.417       .  A
C529        H534   1.083       .  S
C530        C531   1.385       .  A
C531        C532   1.395       .  A
C531        H535   1.085       .  S
C532        C533   1.453       .  A
C532        C538   1.524       .  S
C533        H536   1.082       .  S
N537        C541   1.406       .  A
N537        C538   1.405   1_545  A
N537        N544   1.468       .  S
C538        C539   1.391   1_565  A
C539        C540   1.374       .  A
C539        H542   1.083       .  S
C540        C541   1.372       .  A
C540        H543   1.082       .  S
C541        C562   1.518       .  S
N544        C548   1.396   1_545  A
N544        C545   1.414       .  A
C545        C546   1.381       .  A
C545        C555   1.541       .  S
C546        C547   1.366   1_545  A
C546        H549   1.083       .  S
C547        C548   1.379       .  A
C547        H550   1.081       .  S
C551        C552   1.410       .  A
C551        C556   1.454       .  A
C551        C701   1.525       .  S
C552        C553   1.387       .  A
C552        H557   1.085       .  S
C553        C554   1.399       .  A
C553        C564   1.477       .  S
C554        C555   1.406       .  A
C554        H558   1.084       .  S
C555        C556   1.462       .  A
C556        H559   1.082       .  S
C560        C561   1.455       .  A
C560        C565   1.421       .  A
C560        C728   1.510       .  S
C561        C562   1.443       .  A
C561        H566   1.081       .  S
C562        C563   1.336       .  A
C563        C564   1.390       .  A
C563        H567   1.076       .  S
C564        C565   1.392       .  A
C565        H568   1.083       .  S
O569       Ni577   1.958       .  S
O569        C579   1.290       .  A
O570       Ni577   1.966       .  S
O570        C580   1.289       .  A
O571       Ni577   1.965       .  S
O571        C581   1.289       .  A
O572       Ni577   1.944       .  S
O572        C582   1.285       .  A
O573       Ni578   1.910       .  S
O573        C582   1.280       .  A
O574       Ni578   1.918       .  S
O574        C581   1.283       .  A
O575       Ni578   1.917       .  S
O575        C580   1.284       .  A
O576       Ni578   1.932       .  S
O576        C579   1.282       .  A
Ni577      Ni578   2.379       .  S
C579        C607   1.502       .  S
C582        C624   1.480       .  S
O583       Ni591   1.909       .  S
O583        C593   1.279       .  A
O584       Ni591   1.905       .  S
O584        C594   1.281       .  A
O585       Ni591   1.965       .  S
O585        C595   1.288       .  A
O586       Ni591   1.955       .  S
O586        C596   1.289       .  A
O587       Ni592   1.918       .  S
O587        C596   1.279       .  A
O588       Ni592   1.936       .  S
O588        C595   1.287       .  A
O589       Ni592   1.968       .  S
O589        C594   1.290       .  A
O590       Ni592   1.976       .  S
O590        C593   1.292       .  A
Ni591      Ni592   2.377       .  S
C593        C610   1.501       .  S
C595        C634   1.514       .  S
C596        C621   1.491       .  S
O597       Ni605   1.951       .  S
O597        C607   1.288       .  A
O598       Ni605   1.947       .  S
O598        C608   1.284       .  A
O599       Ni605   1.920       .  S
O599        C609   1.284       .  A
O600       Ni605   1.915       .  S
O600        C610   1.281       .  A
O601       Ni606   1.972       .  S
O601        C610   1.290       .  A
O602       Ni606   1.982       .  S
O602        C609   1.292       .  A
O603       Ni606   1.947       .  S
O603        C608   1.290       .  A
O604       Ni606   1.941       .  S
O604        C607   1.283       .  A
Ni605      Ni606   2.376       .  S
C608        C625   1.510       .  S
O611       Ni619   1.934       .  S
O611        C621   1.282       .  A
O612       Ni619   1.949       .  S
O612        C622   1.291       .  A
O613       Ni619   1.933       .  S
O613        C623   1.287       .  A
O614       Ni619   1.906       .  S
O614        C624   1.279       .  A
O615       Ni620   1.949       .  S
O615        C624   1.287       .  A
O616       Ni620   1.990       .  S
O616        C623   1.294       .  A
O617       Ni620   1.986       .  S
O617        C622   1.293       .  A
O618       Ni620   1.940       .  S
O618        C621   1.287       .  A
Ni619      Ni620   2.377       .  S
C625        C626   1.421       .  A
C625        C630   1.455       .  A
C626        C627   1.397       .  A
C626        H631   1.084       .  S
C627        C628   1.394       .  A
C627        C636   1.479       .  S
C628        C629   1.338       .  A
C628        H632   1.057       .  S
C629        C630   1.443       .  A
C629        C651   1.517       .  S
C630        H633   1.082       .  S
C634        C635   1.409       .  A
C634        C639   1.448       .  A
C635        C636   1.386       .  A
C635        H640   1.085       .  S
C636        C637   1.402       .  A
C637        C638   1.407       .  A
C637        H641   1.085       .  S
C638        C639   1.457       .  A
C638        C644   1.535       .  S
C639        H642   1.082       .  S
N643        C647   1.399       .  A
N643        C644   1.410       .  A
N643        N650   1.474       .  S
C644        C645   1.380       .  A
C645        C646   1.364       .  A
C645        H648   1.083       .  S
C646        C647   1.379       .  A
C646        H649   1.081       .  S
C647        C670   1.529       .  S
N650        C654   1.403       .  A
N650        C651   1.408       .  A
C651        C652   1.373       .  A
C652        C653   1.370       .  A
C652        H655   1.082       .  S
C653        C654   1.387       .  A
C653        H656   1.083       .  S
C654        C659   1.516       .  S
C657        C658   1.447       .  A
C657        C662   1.423       .  A
C657        C686   1.532       .  S
C658        C659   1.448       .  A
C658        H663   1.082       .  S
C659        C660   1.394       .  A
C660        C661   1.389       .  A
C660        H664   1.084       .  S
C661        C662   1.413       .  A
C661        C668   1.510       .  S
C662        H665   1.083       .  S
C666        C667   1.417       .  A
C666        C671   1.440       .  A
C666        C715   1.523       .  S
C667        C668   1.404       .  A
C667        H672   1.083       .  S
C668        C669   1.407       .  A
C669        C670   1.387       .  A
C669        H673   1.081       .  S
C670        C671   1.451       .  A
C671        H674   1.080       .  S
O675       Ni683   1.908       .  S
O675        C685   1.279       .  A
O676       Ni683   1.936       .  S
O676        C686   1.287       .  A
O677       Ni683   1.960       .  S
O677        C687   1.293       .  A
O678       Ni683   1.944       .  S
O678        C688   1.284       .  A
O679       Ni684   1.947       .  S
O679        C688   1.289       .  A
O680       Ni684   1.992       .  S
O680        C687   1.293       .  A
O681       Ni684   1.982       .  S
O681        C686   1.292       .  A
O682       Ni684   1.939       .  S
O682        C685   1.285       .  A
Ni683      Ni684   2.376       .  S
C685        C727   1.476       .  S
C687        C781   1.554       .  S
C688        C713   1.502       .  S
O689       Ni697   1.926       .  S
O689        C699   1.280       .  A
O690       Ni697   1.931       .  S
O690        C700   1.286       .  A
O691       Ni697   1.978       .  S
O691        C701   1.290       .  A
O692       Ni697   1.978       .  S
O692        C702   1.292       .  A
O693       Ni698   1.933       .  S
O693        C702   1.284       .  A
O694       Ni698   1.936       .  S
O694        C701   1.288       .  A
O695       Ni698   1.953       .  S
O695        C700   1.285       .  A
O696       Ni698   1.951       .  S
O696        C699   1.289       .  A
Ni697      Ni698   2.376       .  S
C699        C730   1.494       .  S
C700        C863   1.504       .  S
C702        C716   1.516       .  S
O703       Ni711   1.967       .  S
O703        C713   1.292       .  A
O704       Ni711   1.987       .  S
O704        C714   1.292       .  A
O705       Ni711   1.927       .  S
O705        C715   1.286       .  A
O706       Ni711   1.927       .  S
O706        C716   1.282       .  A
O707       Ni712   1.982       .  S
O707        C716   1.294       .  A
O708       Ni712   1.974       .  S
O708        C715   1.290       .  A
O709       Ni712   1.944       .  S
O709        C714   1.289       .  A
O710       Ni712   1.923       .  S
O710        C713   1.280       .  A
Ni711      Ni712   2.372       .  S
C714        C872   1.535       .  S
O717       Ni725   1.936       .  S
O717        C727   1.283       .  A
O718       Ni725   1.959       .  S
O718        C728   1.287       .  A
O719       Ni725   1.958       .  S
O719        C729   1.287       .  A
O720       Ni725   1.951       .  S
O720        C730   1.289       .  A
O721       Ni726   1.930       .  S
O721        C730   1.281       .  A
O722       Ni726   1.918       .  S
O722        C729   1.285       .  A
O723       Ni726   1.926       .  S
O723        C728   1.286       .  A
O724       Ni726   1.916       .  S
O724        C727   1.281       .  A
Ni725      Ni726   2.381       .  S
C729        C790   1.511       .  S
C731        C732   1.424       .  A
C731        C736   1.449       .  A
C731        C892   1.538       .  S
C732        C733   1.415       .  A
C732        H737   1.083       .  S
C733        C734   1.387       .  A
C733        C742   1.509       .  S
C734        C735   1.395       .  A
C734        H738   1.084       .  S
C735        C736   1.450       .  A
C735        C753   1.520       .  S
C736        H739   1.082       .  S
C740        C741   1.416       .  A
C740        C745   1.451       .  A
C740        C934   1.534       .  S
C741        C742   1.397       .  A
C741        H746   1.083       .  S
C742        C743   1.407       .  A
C743        C744   1.389       .  A
C743        H747   1.079       .  S
C744        C745   1.458       .  A
C744        C760   1.543       .  S
C745        H748   1.081       .  S
N749        C753   1.398   1_554  A
N749        C750   1.386       .  A
N749        N756   1.451       .  S
C750        C751   1.380       .  A
C750        C767   1.523       .  S
C751        C752   1.374       .  A
C751        H754   1.081       .  S
C752        C753   1.385   1_554  A
C752        H755   1.083       .  S
N756        C760   1.397   1_554  A
N756        C757   1.405       .  A
C757        C758   1.388       .  A
C757        C774   1.540       .  S
C758        C759   1.381   1_554  A
C758        H761   1.083       .  S
C759        C760   1.378       .  A
C759        H762   1.081       .  S
C763        C764   1.414       .  A
C763        C768   1.431       .  A
C764        C765   1.401       .  A
C764        H769   1.084       .  S
C765        C766   1.410       .  A
C765        C776   1.510       .  S
C766        C767   1.390       .  A
C766        H770   1.078       .  S
C767        C768   1.438       .  A
C768        H771   1.081       .  S
C772        C773   1.462       .  A
C772        C777   1.421       .  A
C773        C774   1.461       .  A
C773        H778   1.082       .  S
C774        C775   1.396       .  A
C775        C776   1.390       .  A
C775        H779   1.085       .  S
C776        C777   1.415       .  A
C777        H780   1.083       .  S
C781        C782   1.424       .  A
C781        C786   1.461       .  A
C782        C783   1.417       .  A
C782        H787   1.083       .  S
C783        C784   1.384       .  A
C783        C792   1.509       .  S
C784        C785   1.397       .  A
C784        H788   1.085       .  S
C785        C786   1.460       .  A
C785        C803   1.535       .  S
C786        H789   1.082       .  S
C790        C791   1.414       .  A
C790        C795   1.435       .  A
C791        C792   1.397       .  A
C791        H796   1.083       .  S
C792        C793   1.413       .  A
C793        C794   1.390       .  A
C793        H797   1.079       .  S
C794        C795   1.444       .  A
C794        C807   1.532       .  S
C795        H798   1.080       .  S
N799        C803   1.410       .  A
N799        C800   1.404       .  A
N799        N806   1.468       .  S
C800        C801   1.372       .  A
C800        C815   1.517       .  S
C801        C802   1.375       .  A
C801        H804   1.082       .  S
C802        C803   1.392       .  A
C802        H805   1.083       .  S
N806        C810   1.420       .  A
N806        C807   1.394       .  A
C807        C808   1.379       .  A
C808        C809   1.368       .  A
C808        H811   1.081       .  S
C809        C810   1.382       .  A
C809        H812   1.083       .  S
C810        C826   1.555       .  S
C813        C814   1.453       .  A
C813        C818   1.420       .  A
C813        C920   1.506       .  S
C814        C815   1.441       .  A
C814        H819   1.082       .  S
C815        C816   1.341       .  A
C816        C817   1.393       .  A
C816        H820   1.071       .  S
C817        C818   1.393       .  A
C817        C824   1.476       .  S
C818        H821   1.084       .  S
C822        C823   1.413       .  A
C822        C827   1.465       .  A
C822        C893   1.546       .  S
C823        C824   1.390       .  A
C823        H828   1.085       .  S
C824        C825   1.398       .  A
C825        C826   1.404       .  A
C825        H829   1.085       .  S
C826        C827   1.472       .  A
C827        H830   1.081       .  S
C831        C832   1.437       .  A
C831        C836   1.424       .  A
C831        C906   1.519       .  S
C832        C833   1.438       .  A
C832        H837   1.082       .  S
C833        C834   1.394       .  A
C833        C853   1.504       .  S
C834        C835   1.389       .  A
C834        H838   1.084       .  S
C835        C836   1.415       .  A
C835        C842   1.510       .  S
C836        H839   1.083       .  S
C840        C841   1.418       .  A
C840        C845   1.455       .  A
C840        C935   1.547       .  S
C841        C842   1.403       .  A
C841        H846   1.083       .  S
C842        C843   1.408       .  A
C843        C844   1.386       .  A
C843        H847   1.081       .  S
C844        C845   1.466       .  A
C844        C860   1.549       .  S
C845        H848   1.081       .  S
N849        C853   1.397       .  A
N849        C850   1.406   1_655  A
N849        N856   1.474       .  S
C850        C851   1.373       .  A
C850        C865   1.509       .  S
C851        C852   1.367   1_455  A
C851        H854   1.082       .  S
C852        C853   1.385       .  A
C852        H855   1.083       .  S
N856        C860   1.412       .  A
N856        C857   1.418   1_655  A
C857        C858   1.382   1_455  A
C857        C874   1.546       .  S
C858        C859   1.368       .  A
C858        H861   1.083       .  S
C859        C860   1.378       .  A
C859        H862   1.081       .  S
C863        C864   1.452       .  A
C863        C868   1.416       .  A
C864        C865   1.442       .  A
C864        H869   1.082       .  S
C865        C866   1.341       .  A
C866        C867   1.393       .  A
C866        H870   1.072       .  S
C867        C868   1.390       .  A
C867        C876   1.470       .  S
C868        H871   1.083       .  S
C872        C873   1.463       .  A
C872        C877   1.408       .  A
C873        C874   1.472       .  A
C873        H878   1.082       .  S
C874        C875   1.403       .  A
C875        C876   1.397       .  A
C875        H879   1.085       .  S
C876        C877   1.384       .  A
C877        H880   1.085       .  S
O881       Ni889   1.934       .  S
O881        C891   1.283       .  A
O882       Ni889   1.939       .  S
O882        C892   1.287       .  A
O883       Ni889   1.951       .  S
O883        C893   1.292       .  A
O884       Ni889   1.936       .  S
O884        C894   1.284       .  A
O885       Ni890   1.952       .  S
O885        C894   1.287       .  A
O886       Ni890   1.990       .  S
O886        C893   1.292       .  A
O887       Ni890   1.988       .  S
O887        C892   1.294       .  A
O888       Ni890   1.959       .  S
O888        C891   1.289       .  A
Ni889      Ni890   2.373       .  S
C891        C922   1.504       .  S
C894        C936   1.500       .  S
O895       Ni903   1.935       .  S
O895        C905   1.285       .  A
O896       Ni903   1.969       .  S
O896        C906   1.290       .  A
O897       Ni903   1.976       .  S
O897        C907   1.290       .  A
O898       Ni903   1.935       .  S
O898        C908   1.284       .  A
O899       Ni904   1.923       .  S
O899        C908   1.282       .  A
O900       Ni904   1.945       .  S
O900        C907   1.290       .  A
O901       Ni904   1.928       .  S
O901        C906   1.285       .  A
O902       Ni904   1.910       .  S
O902        C905   1.279       .  A
Ni903      Ni904   2.381       .  S
C905        C919   1.474       .  S
C908        C933   1.480       .  S
O909       Ni917   1.918       .  S
O909        C919   1.282       .  A
O910       Ni917   1.930       .  S
O910        C920   1.287       .  A
O911       Ni917   1.926       .  S
O911        C921   1.286       .  A
O912       Ni917   1.936       .  S
O912        C922   1.284       .  A
O913       Ni918   1.959       .  S
O913        C922   1.289       .  A
O914       Ni918   1.957       .  S
O914        C921   1.288       .  A
O915       Ni918   1.951       .  S
O915        C920   1.285       .  A
O916       Ni918   1.929       .  S
O916        C919   1.282       .  A
Ni917      Ni918   2.380       .  S
O923       Ni931   1.939       .  S
O923        C933   1.285       .  A
O924       Ni931   1.981       .  S
O924        C934   1.291       .  A
O925       Ni931   1.991       .  S
O925        C935   1.294       .  A
O926       Ni931   1.957       .  S
O926        C936   1.289       .  A
O927       Ni932   1.933       .  S
O927        C936   1.283       .  A
O928       Ni932   1.937       .  S
O928        C935   1.289       .  A
O929       Ni932   1.928       .  S
O929        C934   1.287       .  A
O930       Ni932   1.917       .  S
O930        C933   1.280       .  A
Ni931      Ni932   2.375       .  S
