geometry optimzed in LAMMPS
_audit_creation_date              2020-12-01 
_audit_creation_method            'lammps2cif' 
_symmetry_space_group_name_H-M    'P1' 
_symmetry_Int_Tables_number       1 
_symmetry_cell_setting            triclinic 
loop_ 
_symmetry_equiv_pos_as_xyz 
  x,y,z 
_cell_length_a                    29.27107148 
_cell_length_b                    29.315341424373877 
_cell_length_c                    25.198828983788292 
_cell_angle_alpha                 90.06706287659496 
_cell_angle_beta                  89.9776035618204 
_cell_angle_gamma                 119.98566423875546 
loop_ 
_atom_site_label 
_atom_site_type_symbol 
_atom_site_fract_x 
_atom_site_fract_y 
_atom_site_fract_z 
_atom_site_charge 
N1          N  0.99644978  0.44673172  0.04885774    -0.36100
N2          N  0.99770751  0.45936021  0.93381114    -0.56700
N3          N  0.00115728  0.55945037  0.94813432    -0.36100
N4          N  0.99278433  0.54324715  0.06296753    -0.56700
C5          C  0.98778805  0.39913372  0.03226870     0.27500
C6          C  0.98169125  0.44170541  0.10049292     0.27500
C7          C  0.99098307  0.55209414  0.89538247     0.27500
C8          C  0.99254454  0.59871080  0.96373157     0.27500
C9          C  0.00677024  0.41850503  0.93584452     0.36100
C10         C  0.00504403  0.47561729  0.88276854     0.36100
C11         C  0.99579111  0.53205786  0.11450885     0.36100
C12         C  0.00269656  0.59352880  0.06161042     0.36100
C13         C  0.96791008  0.36361167  0.07397247    -0.21400
C14         C  0.96389573  0.39041229  0.11693585    -0.21400
C15         C  0.97642312  0.58760663  0.87714990    -0.21400
C16         C  0.97781139  0.61727160  0.92012412    -0.21400
C17         C  0.01976401  0.40864758  0.88586900    -0.22500
C18         C  0.01841595  0.44467674  0.85217935    -0.22500
C19         C  0.00704718  0.57524356  0.14601308    -0.22500
C20         C  0.01137247  0.61410699  0.11254707    -0.22500
C21         C  0.99940205  0.38733327  0.98121297    -0.17800
C22         C  0.98614946  0.48265951  0.13390679    -0.17800
C23         C  0.99983269  0.61977612  0.01573630    -0.17800
C24         C  0.99687493  0.51599742  0.86271274    -0.17800
H25         H  0.95726138  0.32254415  0.07347711     0.15100
H26         H  0.94966455  0.37399471  0.15593636     0.15100
H27         H  0.96631819  0.59207728  0.83692225     0.15100
H28         H  0.96887736  0.64889130  0.91920836     0.15100
H29         H  0.02837952  0.37808743  0.87463079     0.13400
H30         H  0.02613182  0.44757146  0.80993952     0.13400
H31         H  0.01150174  0.57844022  0.18871650     0.13400
H32         H  0.01927858  0.65285784  0.12450127     0.13400
H33         H  0.01665257  0.48170553  0.02777676     0.26600
H34         H  0.01824966  0.54263987  0.97114557     0.26600
N35         N  0.98804950  0.44062533  0.44893236    -0.36100
N36         N  0.98730390  0.53896786  0.43341174    -0.56700
N37         N  0.99458496  0.55582444  0.54784371    -0.36100
N38         N  0.98893684  0.45448103  0.56351034    -0.56700
C39         C  0.97498351  0.43609340  0.39683188     0.27500
C40         C  0.97894453  0.39292930  0.46572972     0.27500
C41         C  0.98727443  0.59578618  0.53182426     0.27500
C42         C  0.98534441  0.54970071  0.60077224     0.27500
C43         C  0.99186978  0.52758441  0.38230743     0.36100
C44         C  0.99859262  0.58974569  0.43428972     0.36100
C45         C  0.99743594  0.41319579  0.56210965     0.36100
C46         C  0.99783405  0.47223837  0.61410031     0.36100
C47         C  0.95766845  0.38487202  0.38023990    -0.21400
C48         C  0.96039895  0.35771475  0.42363110    -0.21400
C49         C  0.97415214  0.61593503  0.57541423    -0.21400
C50         C  0.97258540  0.58664550  0.61876690    -0.21400
C51         C  0.00563522  0.57124042  0.35060352    -0.22500
C52         C  0.00971231  0.61046226  0.38345222    -0.22500
C53         C  0.01132973  0.40442578  0.61204342    -0.22500
C54         C  0.01152028  0.44175820  0.64498323    -0.22500
C55         C  0.98133913  0.47770415  0.36321326    -0.17800
C56         C  0.98958976  0.38114000  0.51725933    -0.17800
C57         C  0.99097564  0.51366495  0.63372947    -0.17800
C58         C  0.99526475  0.61652582  0.47960955    -0.17800
H59         H  0.94499139  0.36886165  0.34078775     0.15100
H60         H  0.95009606  0.31674153  0.42407216     0.15100
H61         H  0.96683335  0.64863145  0.57621885     0.15100
H62         H  0.96380677  0.59245854  0.65910595     0.15100
H63         H  0.01192208  0.57454986  0.30812139     0.13400
H64         H  0.01923263  0.64958651  0.37112172     0.13400
H65         H  0.01990595  0.37396260  0.62369319     0.13400
H66         H  0.02056953  0.44586156  0.68696457     0.13400
H67         H  0.00776728  0.47551683  0.47021568     0.26600
H68         H  0.01063162  0.53782429  0.52507836     0.26600
O69         O  0.97872088  0.07281913  0.03344432    -0.87900
C70         C  0.91271833  0.96251508  0.91537637     0.88200
Mg71       Mg  0.06038001  0.13319098  0.03218623     1.58100
O72         O  0.93647069  0.91517430  0.03478944    -0.87600
O73         O  0.92361895  0.00809089  0.08417182    -0.74900
C74         C  0.19089805  0.00802519  0.97797472     0.93200
O75         O  0.00763807  0.08734591  0.90884665    -0.74700
O76         O  0.19403754  0.05255041  0.97158122    -0.82200
Mg77       Mg  0.93487913  0.06338034  0.96135597     1.58000
C78         C  0.00652405  0.82031963  0.02537014     0.93100
O79         O  0.85685680  0.04362477  0.00288658    -0.80500
H80         H  0.92518411  0.90194662  0.11279755    -0.05800
C81         C  0.04778976  0.95590155  0.91952471     0.88100
O82         O  0.08273953  0.08516351  0.08752530    -0.75000
O83         O  0.91419765  0.98186235  0.95934639    -0.87800
O84         O  0.96548727  0.82144135  0.01037820    -0.80600
C85         C  0.81917176  0.81746976  0.97188231     0.93300
C86         C  0.81440675  0.00247602  0.01685326     0.93100
Mg87       Mg  0.07195837  0.94853514  0.03526206     1.58000
O88         O  0.14795424  0.96732720  0.99153292    -0.80500
O89         O  0.99981446  0.92567971  0.08826321    -0.74800
O90         O  0.82007773  0.86000910  0.98475782    -0.80600
O91         O  0.95691811  0.14904061  0.96419771    -0.82300
O92         O  0.18702324  0.15185269  0.01107981    -0.80600
C93         C  0.95221886  0.91316657  0.07972351     0.87500
O94         O  0.09295421  0.03013908  0.03717624    -0.87800
O95         O  0.02810351  0.93906669  0.96359796    -0.87900
O96         O  0.08305951  0.00365575  0.91261374    -0.74900
Mg97       Mg  0.87639031  0.93657925  0.02969701     1.58000
O98         O  0.86134852  0.81547562  0.96668593    -0.82300
H99         H  0.97301165  0.08201363  0.11130890    -0.06000
O100        O  0.07061954  0.09687728  0.96219624    -0.87600
H101        H  0.08249501  0.11186183  0.88449147    -0.05900
H102        H  0.10570456  0.03482245  0.11543950    -0.06000
C103        C  0.05520621  0.09981453  0.91740890     0.87500
C104        C  0.95889568  0.05587297  0.07743370     0.88100
C105        C  0.09482605  0.04952000  0.08122135     0.88200
H106        H  0.03354565  0.92968204  0.88571648    -0.06000
O107        O  0.92480114  0.92682593  0.90939277    -0.75000
Mg108      Mg  0.13058585  0.07523614  0.96682430     1.58000
H109        H  0.90212381  0.97722414  0.88096412    -0.06000
C110        C  0.00055341  0.19111760  0.97216881     0.93100
O111        O  0.14641162  0.19683509  0.02997302    -0.82300
C112        C  0.18842677  0.19466752  0.02371013     0.93200
O113        O  0.81288484  0.95889531  0.02483373    -0.82200
Mg114      Mg  0.94693862  0.87873213  0.96499756     1.58200
O115        O  0.04161686  0.19010317  0.98722473    -0.80600
O116        O  0.05019423  0.86248309  0.03307785    -0.82300
O117        O  0.03154095  0.93922324  0.54028066    -0.87900
C118        C  0.09697723  0.04982591  0.42371627     0.88200
Mg119      Mg  0.95090590  0.87825800  0.53752347     1.58100
O120        O  0.06961598  0.09596816  0.54220495    -0.87600
O121        O  0.08434479  0.00411957  0.59231296    -0.74900
C122        C  0.81352310  0.99581610  0.48050992     0.93200
O123        O  0.00471736  0.92535941  0.41511333    -0.74700
O124        O  0.81322239  0.95269378  0.47350137    -0.82200
Mg125      Mg  0.07649735  0.94967802  0.46912627     1.58000
C126        C  0.99605961  0.18741295  0.53038746     0.93100
O127        O  0.15268681  0.97005302  0.51371958    -0.80500
H128        H  0.07917050  0.10988373  0.62025739    -0.05800
C129        C  0.95893239  0.05323337  0.42494651     0.88100
O130        O  0.92667445  0.92511333  0.59260257    -0.75000
O131        O  0.09542566  0.03075842  0.46781430    -0.87800
O132        O  0.03761899  0.18707448  0.51576704    -0.80600
C133        C  0.18748653  0.19550898  0.48019462     0.93300
C134        C  0.19488817  0.01161696  0.52735604     0.93100
Mg135      Mg  0.93242967  0.05923019  0.54023242     1.58000
O136        O  0.85488260  0.03739559  0.49603855    -0.80500
O137        O  0.00465754  0.08425938  0.59402784    -0.74800
O138        O  0.18690909  0.15359373  0.49497105    -0.80600
O139        O  0.05618433  0.86377613  0.46980853    -0.82300
O140        O  0.82270007  0.85560316  0.51470964    -0.80600
C141        C  0.05271581  0.09780379  0.58662634     0.87500
O142        O  0.91360375  0.97828435  0.54219064    -0.87800
O143        O  0.97796578  0.06986964  0.46929497    -0.87900
O144        O  0.92481714  0.00519555  0.41733003    -0.74900
Mg145      Mg  0.13123486  0.07618387  0.53867625     1.58000
O146        O  0.14496680  0.19667965  0.47355380    -0.82300
H147        H  0.03603497  0.92954608  0.61823643    -0.06000
O148        O  0.94054463  0.91432905  0.46760600    -0.87600
H149        H  0.93005934  0.90014720  0.38964332    -0.05900
H150        H  0.90139439  0.97365505  0.62054333    -0.06000
C151        C  0.95684882  0.91216202  0.42299389     0.87500
C152        C  0.05025407  0.95605984  0.58471084     0.88100
C153        C  0.91280081  0.95945438  0.58626365     0.88200
H154        H  0.97280991  0.07989704  0.39153244    -0.06000
O155        O  0.08351427  0.08441791  0.41709557    -0.75000
Mg156      Mg  0.87845920  0.93299654  0.47096055     1.58000
H157        H  0.10870656  0.03564239  0.38966361    -0.06000
C158        C  0.01210447  0.82166870  0.47600954     0.93100
O159        O  0.86611600  0.81367987  0.53456060    -0.82300
C160        C  0.82321173  0.81386610  0.52788339     0.93200
O161        O  0.19623304  0.05527551  0.53457613    -0.82200
Mg162      Mg  0.05906914  0.13144840  0.47157383     1.58200
O163        O  0.97129218  0.82286843  0.49164857    -0.80600
O164        O  0.95269144  0.14483347  0.53799917    -0.82300
N165        N  0.53735594  0.98715934  0.05975184    -0.36100
N166        N  0.43756691  0.98488598  0.04863459    -0.56700
N167        N  0.44673044  0.98314725  0.93333909    -0.36100
N168        N  0.55012786  0.99291856  0.94462662    -0.56700
C169        C  0.52807429  0.99385263  0.11096551     0.27500
C170        C  0.58876698  0.00082667  0.05601586     0.27500
C171        C  0.40614607  0.99264998  0.93736360     0.27500
C172        C  0.46345222  0.99243209  0.88239942     0.27500
C173        C  0.43589967  0.97651610  0.10152306     0.36100
C174        C  0.38997239  0.97817590  0.03491022     0.36100
C175        C  0.59274298  0.98911577  0.95829536     0.36100
C176        C  0.54351223  0.98378371  0.89181482     0.36100
C177        C  0.57400043  0.01133599  0.14025124    -0.21400
C178        C  0.61229362  0.01583852  0.10556324    -0.24000
C179        C  0.39627918  0.00703928  0.88809218    -0.21400
C180        C  0.43239201  0.00685452  0.85342446    -0.21400
C181        C  0.38710329  0.96472881  0.12156200    -0.22500
C182        C  0.35814951  0.96618760  0.07943117    -0.22500
C183        C  0.61367654  0.97829905  0.91386712    -0.22500
C184        C  0.58236542  0.97472271  0.87179145    -0.22500
C185        C  0.47890956  0.98280110  0.13254457    -0.17800
C186        C  0.61430718  0.99705944  0.00992458    -0.17800
C187        C  0.50479129  0.98651861  0.86079477    -0.17800
C188        C  0.37606076  0.98634879  0.98352258    -0.17800
H189        H  0.57941805  0.01994767  0.18231494     0.15100
H190        H  0.65277877  0.02830442  0.11580298     0.15100
H191        H  0.36596294  0.01638912  0.87794934     0.15100
H192        H  0.43546259  0.01640290  0.81161524     0.15100
H193        H  0.37402010  0.95683639  0.16241036     0.13400
H194        H  0.31834339  0.95954071  0.08145926     0.13400
H195        H  0.64786335  0.97331082  0.91195129     0.13400
H196        H  0.58779313  0.96665711  0.83106151     0.13400
H197        H  0.50897066  0.96869906  0.03055081     0.26600
H198        H  0.45880866  0.96618693  0.96212595     0.26600
N199        N  0.53669096  0.98200374  0.43334694    -0.36100
N200        N  0.44203638  0.99035178  0.44558511    -0.56700
N201        N  0.45463941  0.99269122  0.56018135    -0.36100
N202        N  0.55268545  0.99159325  0.54805981    -0.56700
C203        C  0.52726805  0.98878932  0.38222791     0.27500
C204        C  0.58739852  0.99294891  0.43622248     0.27500
C205        C  0.41605196  0.00516342  0.55668095     0.27500
C206        C  0.47236467  0.00201859  0.61077046     0.27500
C207        C  0.43805214  0.97908969  0.39316146     0.36100
C208        C  0.39598405  0.98703943  0.46015108     0.36100
C209        C  0.59282751  0.98379783  0.53410143     0.36100
C210        C  0.54696486  0.98456204  0.60117019     0.36100
C211        C  0.57218999  0.00317976  0.35215107    -0.21400
C212        C  0.61007886  0.00580164  0.38620666    -0.21400
C213        C  0.40902718  0.02232370  0.60573867    -0.21400
C214        C  0.44449436  0.02024941  0.63988177    -0.21400
C215        C  0.38947626  0.96918223  0.37419764    -0.22500
C216        C  0.36294716  0.97449827  0.41656638    -0.22500
C217        C  0.61330033  0.97267316  0.57865324    -0.22500
C218        C  0.58398854  0.97281664  0.62112984    -0.22500
C219        C  0.47887026  0.98093462  0.36147856    -0.17800
C220        C  0.61312628  0.98929916  0.48216481    -0.17800
C221        C  0.51070341  0.99145514  0.63225344    -0.17800
C222        C  0.38427974  0.99766583  0.51163813    -0.17800
H223        H  0.57733539  0.01128815  0.31000477     0.15100
H224        H  0.64982943  0.01596540  0.37529678     0.15100
H225        H  0.38060519  0.03417408  0.61623428     0.15100
H226        H  0.44884713  0.03047877  0.68159220     0.15100
H227        H  0.37484665  0.95963052  0.33392755     0.13400
H228        H  0.32385754  0.96979142  0.41535712     0.13400
H229        H  0.64594300  0.96521292  0.58037335     0.13400
H230        H  0.58971445  0.96573133  0.66207816     0.13400
H231        H  0.50864754  0.96569534  0.46313496     0.26600
H232        H  0.46366399  0.97279530  0.53190558     0.26600
N233        N  0.45724179  0.46595207  0.06015827    -0.36100
N234        N  0.55870712  0.56183553  0.04712831    -0.56700
N235        N  0.54638699  0.55004591  0.93224463    -0.36100
N236        N  0.44873103  0.45036141  0.94520598    -0.56700
C237        C  0.47494760  0.47427968  0.11084368     0.27500
C238        C  0.41678893  0.41572644  0.05719344     0.27500
C239        C  0.59628726  0.59113722  0.93508257     0.27500
C240        C  0.53803667  0.53246467  0.88155317     0.27500
C241        C  0.55374214  0.56386091  0.10031277     0.36100
C242        C  0.60025715  0.60865533  0.03267044     0.36100
C243        C  0.40102507  0.41006486  0.95941492     0.36100
C244        C  0.44764787  0.45462512  0.89186120     0.36100
C245        C  0.44481961  0.42902438  0.14045552    -0.21400
C246        C  0.40807546  0.39221642  0.10668155    -0.21400
C247        C  0.61961515  0.60025635  0.88536086    -0.21400
C248        C  0.58301308  0.56314669  0.85170162    -0.21400
C249        C  0.59271770  0.61189212  0.11984352    -0.22500
C250        C  0.62234625  0.64013862  0.07708796    -0.22500
C251        C  0.36984576  0.38805487  0.91481609    -0.22500
C252        C  0.39936777  0.41634363  0.87201907    -0.22500
C253        C  0.51624994  0.52201140  0.13190934    -0.17800
C254        C  0.38609642  0.39085661  0.01167061    -0.17800
C255        C  0.49013259  0.49149690  0.86052184    -0.17800
C256        C  0.62051522  0.62247894  0.98049045    -0.17800
H257        H  0.44890409  0.42297809  0.18215576     0.15100
H258        H  0.37842954  0.35250607  0.11736986     0.15100
H259        H  0.65882323  0.63075446  0.87417512     0.15100
H260        H  0.58877691  0.55956251  0.80979488     0.15100
H261        H  0.59945527  0.62510266  0.16069008     0.13400
H262        H  0.65652024  0.67926544  0.07870861     0.13400
H263        H  0.33002999  0.35492862  0.91323260     0.13400
H264        H  0.38673658  0.40940273  0.83099359     0.13400
H265        H  0.46830213  0.49436985  0.03085246     0.26600
H266        H  0.51792398  0.53861751  0.96153517     0.26600
N267        N  0.45251502  0.44860433  0.54728454    -0.36100
N268        N  0.55146768  0.54702707  0.56042065    -0.56700
N269        N  0.56565198  0.55558685  0.44554510    -0.36100
N270        N  0.46323389  0.46013100  0.43253023    -0.56700
C271        C  0.45032495  0.45664643  0.59988775     0.27500
C272        C  0.40393445  0.41036822  0.53214403     0.27500
C273        C  0.60492516  0.60365594  0.46074090     0.27500
C274        C  0.55802480  0.55793128  0.39284508     0.27500
C275        C  0.54162450  0.53247410  0.61189420     0.36100
C276        C  0.60109450  0.58848718  0.55856539     0.36100
C277        C  0.42059262  0.41117409  0.43490736     0.36100
C278        C  0.47952038  0.46810697  0.38145479     0.36100
C279        C  0.39995635  0.42258038  0.61859243    -0.21400
C280        C  0.37071188  0.39332435  0.57590188    -0.21400
C281        C  0.62345096  0.63650383  0.41685780    -0.21400
C282        C  0.59367605  0.60778972  0.37413137    -0.21400
C283        C  0.58503601  0.56514178  0.64286598    -0.22500
C284        C  0.62262275  0.60069585  0.60912112    -0.22500
C285        C  0.40950812  0.38806139  0.38509029    -0.22500
C286        C  0.44687896  0.42404103  0.35125007    -0.22500
C287        C  0.49301371  0.49219920  0.63202638    -0.17800
C288        C  0.38949963  0.38828647  0.48066313    -0.17800
C289        C  0.52095138  0.51590703  0.36080933    -0.17800
C290        C  0.62587060  0.61817981  0.51267836    -0.17800
H291        H  0.38578937  0.41888009  0.65892483     0.15100
H292        H  0.32970619  0.36266225  0.57713728     0.15100
H293        H  0.65502184  0.67707885  0.41566722     0.15100
H294        H  0.59792416  0.62209390  0.33383096     0.15100
H295        H  0.58905336  0.56397759  0.68546840     0.13400
H296        H  0.66110439  0.63241641  0.62070380     0.13400
H297        H  0.37753311  0.34950297  0.37416127     0.13400
H298        H  0.44940134  0.41854522  0.30908409     0.13400
H299        H  0.48643248  0.46406584  0.52439741     0.26600
H300        H  0.54861233  0.52183863  0.46868829     0.26600
C301        C  0.48848204  0.44829084  0.77413465    -0.20800
C302        C  0.48468793  0.48779125  0.80190537    -0.08900
C303        C  0.48002321  0.52652049  0.77363657     0.30000
C304        C  0.48068721  0.52658312  0.71825192    -0.20800
C305        C  0.48624847  0.48816567  0.69046932    -0.08900
C306        C  0.48937241  0.44849241  0.71862196     0.30000
F307        F  0.49558011  0.41149697  0.69236393    -0.19400
H308        H  0.49255401  0.41849981  0.79554344     0.18400
H309        H  0.47853767  0.55751361  0.69691435     0.18400
F310        F  0.47671872  0.56525438  0.79983362    -0.19400
C311        C  0.56344870  0.52683139  0.21669266    -0.20800
C312        C  0.52108398  0.52697845  0.19069030    -0.08900
C313        C  0.48105511  0.52758082  0.22092814     0.30000
C314        C  0.48218930  0.52556400  0.27623482    -0.20800
C315        C  0.52335081  0.52321595  0.30224423    -0.08900
C316        C  0.56481673  0.52527543  0.27217971     0.30000
F317        F  0.60556113  0.52401438  0.29643207    -0.19400
H318        H  0.59458677  0.52637584  0.19387372     0.18400
H319        H  0.45022790  0.52449211  0.29892993     0.18400
F320        F  0.44004054  0.52839093  0.19674088    -0.19400
C321        C  0.54988057  0.02900330  0.77571382    -0.20800
C322        C  0.50894717  0.98576643  0.80216792    -0.08900
C323        C  0.47054746  0.94316654  0.77263196     0.30000
C324        C  0.47251316  0.94449548  0.71726280    -0.20800
C325        C  0.51276574  0.98822447  0.69080123    -0.08900
C326        C  0.55183101  0.03032064  0.72028870     0.30000
F327        F  0.59049475  0.07339071  0.69540063    -0.19400
H328        H  0.57946492  0.06223393  0.79811024     0.18400
H329        H  0.44194447  0.91202035  0.69484769     0.18400
F330        F  0.43061419  0.90098377  0.79744860    -0.19400
C331        C  0.47082788  0.93708702  0.21857045    -0.20800
C332        C  0.47345229  0.97999619  0.19121706    -0.08900
C333        C  0.47418013  0.02143822  0.21995498     0.30000
C334        C  0.47396986  0.02062486  0.27541769    -0.20800
C335        C  0.47274478  0.97838721  0.30282687    -0.08900
C336        C  0.47027511  0.93609933  0.27403744     0.30000
F337        F  0.46880514  0.89468600  0.29968204    -0.19400
H338        H  0.47033334  0.90494535  0.19682163     0.18400
H339        H  0.47634132  0.05365673  0.29712289     0.18400
F340        F  0.47696209  0.06342923  0.19430611    -0.19400
C341        C  0.28643238  0.24337119  0.48134180    -0.20800
C342        C  0.23937818  0.24468481  0.47382595    -0.08900
C343        C  0.24287175  0.29395533  0.46518555     0.30000
C344        C  0.29199954  0.34032302  0.46539466    -0.20800
C345        C  0.33831318  0.33861988  0.47469938    -0.08900
C346        C  0.33535011  0.28984019  0.48208205     0.30000
F347        F  0.37972026  0.28741789  0.49165893    -0.19400
H348        H  0.28538195  0.20641891  0.48835508     0.18400
H349        H  0.29385050  0.37787898  0.46010284     0.18400
F350        F  0.19891518  0.29786303  0.45880924    -0.19400
C351        C  0.72437659  0.76340479  0.53016560    -0.20800
C352        C  0.77249212  0.76344695  0.53126572    -0.08900
C353        C  0.77138692  0.71475099  0.52917708     0.30000
C354        C  0.72356938  0.66781792  0.52308983    -0.20800
C355        C  0.67612108  0.66835476  0.51987184    -0.08900
C356        C  0.67652273  0.71620797  0.52489728     0.30000
F357        F  0.63068442  0.71722107  0.52353148    -0.19400
H358        H  0.72382890  0.80003994  0.53207433     0.18400
H359        H  0.72350191  0.63090425  0.52026497     0.18400
F360        F  0.81650650  0.71236122  0.53061662    -0.19400
C361        C  0.33910982  0.05070690  0.51660915    -0.20800
C362        C  0.33604499  0.00152462  0.51909806    -0.08900
C363        C  0.28734193  0.95632071  0.52928872     0.30000
C364        C  0.24181011  0.96014237  0.53468229    -0.20800
C365        C  0.24425776  0.00922928  0.53053984    -0.08900
C366        C  0.29376253  0.05476164  0.52251063     0.30000
F367        F  0.29811043  0.10286135  0.51738830    -0.19400
H368        H  0.37665892  0.08588836  0.50924211     0.18400
H369        H  0.20437338  0.92445781  0.54081847     0.18400
F370        F  0.28378563  0.90844052  0.53275960    -0.19400
C371        C  0.71642560  0.94928280  0.46235391    -0.20800
C372        C  0.76339912  0.99652452  0.47374271    -0.08900
C373        C  0.76051144  0.04244292  0.48364462     0.30000
C374        C  0.71158844  0.04009643  0.48485909    -0.20800
C375        C  0.66496805  0.99236307  0.47581968    -0.08900
C376        C  0.66767177  0.94717788  0.46344056     0.30000
F377        F  0.62291461  0.90057966  0.45463943    -0.19400
H378        H  0.71706402  0.91327625  0.45452358     0.18400
H379        H  0.70986118  0.07529849  0.49412489     0.18400
F380        F  0.80454189  0.08925781  0.49389575    -0.19400
C381        C  0.24262695  0.29210789  0.03901582    -0.20800
C382        C  0.24036297  0.24402791  0.02715085    -0.08900
C383        C  0.28746692  0.24490509  0.01274409     0.30000
C384        C  0.33478184  0.29270997  0.00867726    -0.20800
C385        C  0.33622807  0.34032955  0.01898995    -0.08900
C386        C  0.29012679  0.33983732  0.03502354     0.30000
F387        F  0.29085427  0.38568856  0.04513882    -0.19400
H388        H  0.20728666  0.29302115  0.04984690     0.18400
H389        H  0.37029560  0.29276135  0.99644826     0.18400
F390        F  0.28777008  0.19995775  0.00051496    -0.19400
C391        C  0.76638143  0.71934812  0.96538515    -0.20800
C392        C  0.76766211  0.76802085  0.96679188    -0.08900
C393        C  0.71947435  0.76801341  0.96921105     0.30000
C394        C  0.67168554  0.72046283  0.97220695    -0.20800
C395        C  0.67107235  0.67237276  0.97316992    -0.08900
C396        C  0.71861962  0.67198813  0.96889847     0.30000
F397        F  0.71882665  0.62578895  0.96953578    -0.19400
H398        H  0.80256502  0.71781766  0.96377018     0.18400
H399        H  0.63508118  0.72108951  0.97519673     0.18400
F400        F  0.71836584  0.81374750  0.97010754    -0.19400
C401        C  0.23398508  0.95313538  0.96937158    -0.20800
C402        C  0.23882552  0.00332853  0.97299198    -0.08900
C403        C  0.28960514  0.04793455  0.97744997     0.30000
C404        C  0.33398755  0.04196554  0.98019500    -0.20800
C405        C  0.32864733  0.99179059  0.97814639    -0.08900
C406        C  0.27854235  0.94738271  0.97170444     0.30000
F407        F  0.27274046  0.89851175  0.96904974    -0.19400
H408        H  0.19552729  0.91812434  0.96588456     0.18400
H409        H  0.37265209  0.07647663  0.98490005     0.18400
F410        F  0.29640509  0.09709976  0.98182805    -0.19400
C411        C  0.71241943  0.04567060  0.99913382    -0.20800
C412        C  0.66642608  0.00064200  0.01614469    -0.08900
C413        C  0.66971598  0.95800595  0.03678037     0.30000
C414        C  0.71831164  0.95985316  0.03902155    -0.20800
C415        C  0.76462087  0.00430698  0.02070460    -0.08900
C416        C  0.76119906  0.04775111  0.00139234     0.30000
F417        F  0.80435298  0.09141175  0.98260777    -0.19400
H418        H  0.71023437  0.07876244  0.98298314     0.18400
H419        H  0.71935703  0.92572049  0.05381542     0.18400
F420        F  0.62551497  0.91385451  0.05296989    -0.19400
C421        C  0.03865921  0.33196382  0.51170750    -0.20800
C422        C  0.99230930  0.33225239  0.52476433    -0.08900
C423        C  0.94928380  0.28642837  0.54533742     0.30000
C424        C  0.95166835  0.24004514  0.54975791    -0.20800
C425        C  0.99726560  0.23871758  0.53432899    -0.08900
C426        C  0.04151195  0.28593656  0.51678015     0.30000
F427        F  0.08700843  0.28749761  0.50255727    -0.19400
H428        H  0.07250950  0.36742676  0.49685160     0.18400
H429        H  0.91713494  0.20473578  0.56377979     0.18400
F430        F  0.90452731  0.28626204  0.55976104    -0.19400
C431        C  0.04889415  0.71431668  0.46734036    -0.20800
C432        C  0.99927526  0.66879686  0.47212793    -0.08900
C433        C  0.95387206  0.67348064  0.47216645     0.30000
C434        C  0.95829760  0.72322992  0.47066412    -0.20800
C435        C  0.00810290  0.76936286  0.46859446    -0.08900
C436        C  0.05346850  0.76421414  0.46524734     0.30000
F437        F  0.10241176  0.80726360  0.46258713    -0.19400
H438        H  0.08423135  0.71118568  0.46671329     0.18400
H439        H  0.92259267  0.72561100  0.47286030     0.18400
F440        F  0.90536960  0.62995879  0.47594951    -0.19400
C441        C  0.03251174  0.55914643  0.71936045    -0.20800
C442        C  0.98921697  0.51870265  0.69238255    -0.08900
C443        C  0.94677448  0.47976595  0.72171585     0.30000
C444        C  0.94873156  0.48014889  0.77715920    -0.20800
C445        C  0.99289714  0.51942929  0.80412360    -0.08900
C446        C  0.03441890  0.55956124  0.77492214     0.30000
F447        F  0.07772941  0.59762676  0.80014554    -0.19400
H448        H  0.06568873  0.58912123  0.69726154     0.18400
H449        H  0.91647522  0.44894240  0.79917200     0.18400
F450        F  0.90445636  0.44028597  0.69652107    -0.19400
C451        C  0.93694029  0.47021901  0.27579780    -0.20800
C452        C  0.97780529  0.46963988  0.30450576    -0.08900
C453        C  0.01857076  0.46799493  0.27663679     0.30000
C454        C  0.01992695  0.46999606  0.22104972    -0.20800
C455        C  0.98066845  0.47362593  0.19247232    -0.08900
C456        C  0.93826607  0.47216644  0.22024696     0.30000
F457        F  0.89933296  0.47476846  0.19361955    -0.19400
H458        H  0.90523123  0.47150719  0.29663896     0.18400
H459        H  0.05276933  0.47089026  0.20028351     0.18400
F460        F  0.05858317  0.46751075  0.30332971    -0.19400
C461        C  0.95986722  0.29404842  0.95036521    -0.20800
C462        C  0.00166538  0.33820241  0.97468251    -0.08900
C463        C  0.04510601  0.33525973  0.99372494     0.30000
C464        C  0.04569287  0.28796421  0.99036961    -0.20800
C465        C  0.00288884  0.24275309  0.96791693    -0.08900
C466        C  0.96037247  0.24669468  0.94679797     0.30000
F467        F  0.91880789  0.20465735  0.92356041    -0.19400
H468        H  0.92638148  0.29610980  0.93502273     0.18400
H469        H  0.07895982  0.28636260  0.00704800     0.18400
F470        F  0.08651036  0.37799430  0.01630190    -0.19400
C471        C  0.95467872  0.67256697  0.02587328    -0.20800
C472        C  0.00167654  0.67103129  0.02276106    -0.08900
C473        C  0.05012163  0.71825086  0.02531321     0.30000
C474        C  0.05134627  0.76650846  0.02908940    -0.20800
C475        C  0.00426752  0.76857730  0.02987912    -0.08900
C476        C  0.95573124  0.72074808  0.02911730     0.30000
F477        F  0.90918292  0.72034625  0.03038636    -0.19400
H478        H  0.91707253  0.63630092  0.02442371     0.18400
H479        H  0.08929754  0.80241022  0.02924773     0.18400
F480        F  0.09616528  0.71767443  0.02286842    -0.19400
loop_ 
_geom_bond_atom_site_label_1 
_geom_bond_atom_site_label_2 
_geom_bond_distance 
_geom_bond_site_symmetry_2 
_ccdc_geom_bond_type 
N1            C6   1.356       .  A
N1            C5   1.353       .  A
N1           H33   1.038   1_655  S
N2            C9   1.351   1_655  A
N2           C10   1.351   1_655  A
N3            C8   1.353   1_455  A
N3            C7   1.356   1_455  A
N3           H34   1.038       .  S
N4           C11   1.354       .  A
N4           C12   1.353   1_655  A
C5           C13   1.387       .  A
C5           C21   1.417   1_554  A
C6           C22   1.417       .  A
C6           C14   1.387       .  A
C7           C15   1.386       .  A
C7           C24   1.417       .  A
C8           C23   1.418   1_556  A
C8           C16   1.388       .  A
C9           C21   1.412   1_455  A
C9           C17   1.387       .  A
C10          C24   1.414   1_455  A
C10          C18   1.387       .  A
C11          C19   1.387   1_655  A
C11          C22   1.417       .  A
C12          C20   1.386       .  A
C12          C23   1.415   1_455  A
C13          C14   1.376       .  A
C13          H25   1.082       .  S
C14          H26   1.082       .  S
C15          C16   1.376       .  A
C15          H27   1.082       .  S
C16          H28   1.082       .  S
C17          C18   1.372       .  A
C17          H29   1.082       .  S
C18          H30   1.083       .  S
C19          C20   1.372       .  A
C19          H31   1.082       .  S
C20          H32   1.082       .  S
C21         C462   1.483   1_655  S
C22         C455   1.494       .  S
C23         C472   1.487   1_655  S
C24         C445   1.488       .  S
N35          C40   1.354       .  A
N35          C39   1.355       .  A
N35          H67   1.037   1_655  S
N36          C43   1.353       .  A
N36          C44   1.354       .  A
N37          C42   1.355       .  A
N37          C41   1.354       .  A
N37          H68   1.037   1_655  S
N38          C45   1.352       .  A
N38          C46   1.352       .  A
C39          C47   1.387       .  A
C39          C55   1.420       .  A
C40          C56   1.418       .  A
C40          C48   1.387       .  A
C41          C49   1.388       .  A
C41          C58   1.420       .  A
C42          C57   1.417       .  A
C42          C50   1.386       .  A
C43          C55   1.419       .  A
C43          C51   1.388   1_655  A
C44          C58   1.416       .  A
C44          C52   1.386   1_655  A
C45          C53   1.386   1_655  A
C45          C56   1.412       .  A
C46          C54   1.387   1_655  A
C46          C57   1.415       .  A
C47          C48   1.379       .  A
C47          H59   1.082       .  S
C48          H60   1.082       .  S
C49          C50   1.377       .  A
C49          H61   1.082       .  S
C50          H62   1.082       .  S
C51          C52   1.372       .  A
C51          H63   1.082       .  S
C52          H64   1.082       .  S
C53          C54   1.371       .  A
C53          H65   1.082       .  S
C54          H66   1.083       .  S
C55         C452   1.493       .  S
C56         C422   1.487       .  S
C57         C442   1.489       .  S
C58         C432   1.489       .  S
O69         Mg71   2.149   1_655  S
O69         Mg77   2.161   1_554  S
O69         C104   1.235       .  S
C70         H109   1.081       .  S
C70          O83   1.235       .  S
C70         O107   1.270       .  A
Mg71        O100   2.156   1_554  S
Mg71        O115   2.300   1_554  S
Mg71        O111   2.265       .  S
Mg71         O82   2.298       .  S
O72        Mg114   2.157   1_554  S
O72         Mg97   2.146       .  S
O72          C93   1.235       .  S
O73         C104   1.270       .  A
O73         Mg97   2.300   1_545  S
C74         C402   1.482       .  S
C74          O76   1.272       .  A
C74          O88   1.273   1_545  A
O75         C103   1.269       .  A
O75         Mg77   2.299   1_455  S
O76        Mg108   2.267       .  S
Mg77         O83   2.153   1_545  S
Mg77         O91   2.260       .  S
Mg77         O79   2.307   1_556  S
C78         C475   1.489       .  S
C78         O116   1.273       .  A
C78          O84   1.275   1_455  A
O79          C86   1.275       .  A
H80          C93   1.081       .  S
C81         H106   1.081       .  S
C81          O95   1.235       .  S
C81          O96   1.270   1_565  A
O82         C105   1.269       .  A
O83         Mg97   2.160   1_556  S
O84        Mg114   2.311   1_554  S
C85         C392   1.485       .  S
C85          O98   1.271       .  A
C85          O90   1.276       .  A
C86         C415   1.488       .  S
C86         O113   1.272   1_545  A
Mg87         O94   2.152   1_565  S
Mg87         O95   2.152   1_554  S
Mg87         O88   2.289   1_554  S
Mg87         O89   2.297   1_455  S
Mg87        O116   2.273       .  S
O89          C93   1.269       .  A
O90         Mg97   2.310   1_556  S
O91         C110   1.272   1_655  A
O92         C112   1.275       .  A
O92        Mg108   2.303   1_554  S
O94        Mg108   2.157   1_554  S
O94         C105   1.235       .  S
O95        Mg114   2.139   1_455  S
O96        Mg108   2.298       .  S
Mg97        O113   2.261       .  S
O98        Mg114   2.252       .  S
H99         C104   1.081       .  S
O100       Mg108   2.147       .  S
O100        C103   1.235       .  S
H101        C103   1.081       .  S
H102        C105   1.081       .  S
O107       Mg114   2.300       .  S
C110        C465   1.485       .  S
C110        O115   1.275       .  A
O111        C112   1.273       .  A
C112        C382   1.488       .  S
O117       Mg119   2.134   1_455  S
O117       Mg125   2.153       .  S
O117        C152   1.235       .  S
C118        H157   1.081       .  S
C118        O131   1.235       .  S
C118        O155   1.269       .  A
Mg119       O148   2.154       .  S
Mg119       O163   2.301       .  S
Mg119       O159   2.248       .  S
Mg119       O130   2.299       .  S
O120       Mg162   2.161       .  S
O120       Mg145   2.155       .  S
O120        C141   1.236       .  S
O121        C152   1.270   1_545  A
O121       Mg145   2.298       .  S
C122        C372   1.488       .  S
C122        O124   1.272       .  A
C122        O136   1.276   1_565  A
O123        C151   1.269   1_455  A
O123       Mg125   2.297       .  S
O124       Mg156   2.255       .  S
Mg125       O131   2.154   1_565  S
Mg125       O139   2.280       .  S
Mg125       O127   2.294       .  S
C126        C425   1.490       .  S
C126        O164   1.274       .  A
C126        O132   1.276   1_655  A
O127        C134   1.274   1_565  A
H128        C141   1.081       .  S
C129        H154   1.081       .  S
C129        O143   1.235       .  S
C129        O144   1.269       .  A
O130        C153   1.270       .  A
O131       Mg145   2.159       .  S
O132       Mg162   2.305       .  S
C133        C342   1.491       .  S
C133        O146   1.273       .  A
C133        O138   1.276       .  A
C134        C365   1.484       .  S
C134        O161   1.274       .  A
Mg135       O142   2.152   1_545  S
Mg135       O143   2.157       .  S
Mg135       O136   2.313       .  S
Mg135       O137   2.301   1_655  S
Mg135       O164   2.273       .  S
O137        C141   1.270       .  A
O138       Mg145   2.308       .  S
O139        C158   1.273       .  A
O140        C160   1.275       .  A
O140       Mg156   2.309       .  S
O142       Mg156   2.162       .  S
O142        C153   1.236       .  S
O143       Mg162   2.148   1_655  S
O144       Mg156   2.298   1_545  S
Mg145       O161   2.274       .  S
O146       Mg162   2.275       .  S
H147        C152   1.081       .  S
O148       Mg156   2.145       .  S
O148        C151   1.235       .  S
H149        C151   1.081       .  S
H150        C153   1.081       .  S
O155       Mg162   2.297       .  S
C158        C435   1.490       .  S
C158        O163   1.275   1_455  A
O159        C160   1.270       .  A
C160        C352   1.484       .  S
N165        C170   1.353   1_565  A
N165        C169   1.353       .  A
N165        H197   1.037       .  S
N166        C173   1.352       .  A
N166        C174   1.351       .  A
N167        C172   1.352       .  A
N167        C171   1.353       .  A
N167        H198   1.037       .  S
N168        C175   1.351       .  A
N168        C176   1.352       .  A
C169        C177   1.388   1_565  A
C169        C185   1.416       .  A
C170        C186   1.415   1_545  A
C170        C178   1.387       .  A
C171        C179   1.388   1_565  A
C171        C188   1.414       .  A
C172        C187   1.414       .  A
C172        C180   1.387   1_565  A
C173        C185   1.414       .  A
C173        C181   1.386       .  A
C174        C188   1.414   1_554  A
C174        C182   1.387       .  A
C175        C183   1.386       .  A
C175        C186   1.414   1_556  A
C176        C184   1.386       .  A
C176        C187   1.412       .  A
C177        C178   1.375       .  A
C177        H189   1.083       .  S
C178        H190   1.082       .  S
C179        C180   1.373       .  A
C179        H191   1.082       .  S
C180        H192   1.083       .  S
C181        C182   1.373       .  A
C181        H193   1.082       .  S
C182        H194   1.082       .  S
C183        C184   1.371       .  A
C183        H195   1.082       .  S
C184        H196   1.082       .  S
C185        C332   1.485       .  S
C186        C412   1.484   1_565  S
C187        C322   1.483       .  S
C188        C405   1.480       .  S
N199        C204   1.355       .  A
N199        C203   1.353       .  A
N199        H231   1.036       .  S
N200        C207   1.352       .  A
N200        C208   1.353       .  A
N201        C206   1.352   1_565  A
N201        C205   1.353   1_565  A
N201        H232   1.035       .  S
N202        C209   1.351       .  A
N202        C210   1.352       .  A
C203        C211   1.388   1_565  A
C203        C219   1.417       .  A
C204        C220   1.414       .  A
C204        C212   1.386   1_565  A
C205        C213   1.388       .  A
C205        C222   1.413   1_545  A
C206        C221   1.413   1_545  A
C206        C214   1.387       .  A
C207        C219   1.415       .  A
C207        C215   1.386       .  A
C208        C222   1.415       .  A
C208        C216   1.386       .  A
C209        C217   1.387       .  A
C209        C220   1.413       .  A
C210        C218   1.386       .  A
C210        C221   1.412       .  A
C211        C212   1.374       .  A
C211        H223   1.082       .  S
C212        H224   1.082       .  S
C213        C214   1.373       .  A
C213        H225   1.082       .  S
C214        H226   1.083       .  S
C215        C216   1.374       .  A
C215        H227   1.082       .  S
C216        H228   1.082       .  S
C217        C218   1.373       .  A
C217        H229   1.082       .  S
C218        H230   1.082       .  S
C219        C335   1.486       .  S
C220        C375   1.483       .  S
C221        C325   1.482       .  S
C222        C362   1.484   1_565  S
N233        C238   1.354       .  A
N233        C237   1.354       .  A
N233        H265   1.037       .  S
N234        C241   1.352       .  A
N234        C242   1.352       .  A
N235        C240   1.353       .  A
N235        C239   1.353       .  A
N235        H266   1.035       .  S
N236        C243   1.351       .  A
N236        C244   1.352       .  A
C237        C245   1.388       .  A
C237        C253   1.417       .  A
C238        C254   1.414       .  A
C238        C246   1.386       .  A
C239        C247   1.388       .  A
C239        C256   1.415       .  A
C240        C255   1.416       .  A
C240        C248   1.388       .  A
C241        C253   1.414       .  A
C241        C249   1.385       .  A
C242        C256   1.416   1_554  A
C242        C250   1.387       .  A
C243        C251   1.387       .  A
C243        C254   1.413   1_556  A
C244        C252   1.386       .  A
C244        C255   1.413       .  A
C245        C246   1.373       .  A
C245        H257   1.082       .  S
C246        H258   1.082       .  S
C247        C248   1.373       .  A
C247        H259   1.082       .  S
C248        H260   1.083       .  S
C249        C250   1.372       .  A
C249        H261   1.082       .  S
C250        H262   1.082       .  S
C251        C252   1.372       .  A
C251        H263   1.082       .  S
C252        H264   1.082       .  S
C253        C312   1.488       .  S
C254        C385   1.483       .  S
C255        C302   1.484       .  S
C256        C395   1.483       .  S
N267        C272   1.353       .  A
N267        C271   1.353       .  A
N267        H299   1.036       .  S
N268        C275   1.351       .  A
N268        C276   1.351       .  A
N269        C274   1.354       .  A
N269        C273   1.354       .  A
N269        H300   1.037       .  S
N270        C277   1.353       .  A
N270        C278   1.352       .  A
C271        C279   1.386       .  A
C271        C287   1.414       .  A
C272        C288   1.416       .  A
C272        C280   1.388       .  A
C273        C281   1.387       .  A
C273        C290   1.417       .  A
C274        C289   1.417       .  A
C274        C282   1.387       .  A
C275        C287   1.413       .  A
C275        C283   1.387       .  A
C276        C290   1.411       .  A
C276        C284   1.386       .  A
C277        C285   1.385       .  A
C277        C288   1.414       .  A
C278        C286   1.388       .  A
C278        C289   1.417       .  A
C279        C280   1.375       .  A
C279        H291   1.082       .  S
C280        H292   1.082       .  S
C281        C282   1.376       .  A
C281        H293   1.082       .  S
C282        H294   1.082       .  S
C283        C284   1.369       .  A
C283        H295   1.082       .  S
C284        H296   1.082       .  S
C285        C286   1.373       .  A
C285        H297   1.082       .  S
C286        H298   1.083       .  S
C287        C305   1.483       .  S
C288        C345   1.485       .  S
C289        C315   1.488       .  S
C290        C355   1.482       .  S
C301        C302   1.403       .  A
C301        C306   1.399       .  A
C301        H308   1.083       .  S
C302        C303   1.404       .  A
C303        C304   1.396       .  A
C303        F310   1.357       .  S
C304        C305   1.402       .  A
C304        H309   1.083       .  S
C305        C306   1.404       .  A
C306        F307   1.357       .  S
C311        C312   1.405       .  A
C311        C316   1.400       .  A
C311        H318   1.083       .  S
C312        C313   1.405       .  A
C313        C314   1.396       .  A
C313        F320   1.357       .  S
C314        C315   1.403       .  A
C314        H319   1.083       .  S
C315        C316   1.406       .  A
C316        F317   1.357       .  S
C321        C322   1.404   1_545  A
C321        C326   1.398       .  A
C321        H328   1.083       .  S
C322        C323   1.404       .  A
C323        C324   1.396       .  A
C323        F330   1.358       .  S
C324        C325   1.403       .  A
C324        H329   1.083       .  S
C325        C326   1.404   1_565  A
C326        F327   1.357       .  S
C331        C332   1.403       .  A
C331        C336   1.398       .  A
C331        H338   1.083       .  S
C332        C333   1.405   1_565  A
C333        C334   1.398       .  A
C333        F340   1.357       .  S
C334        C335   1.403   1_545  A
C334        H339   1.083       .  S
C335        C336   1.406       .  A
C336        F337   1.358       .  S
C341        C342   1.410       .  A
C341        C346   1.399       .  A
C341        H348   1.083       .  S
C342        C343   1.413       .  A
C343        C344   1.401       .  A
C343        F350   1.357       .  S
C344        C345   1.401       .  A
C344        H349   1.083       .  S
C345        C346   1.401       .  A
C346        F347   1.357       .  S
C351        C352   1.408       .  A
C351        C356   1.399       .  A
C351        H358   1.083       .  S
C352        C353   1.413       .  A
C353        C354   1.397       .  A
C353        F360   1.358       .  S
C354        C355   1.399       .  A
C354        H359   1.083       .  S
C355        C356   1.403       .  A
C356        F357   1.357       .  S
C361        C362   1.401       .  A
C361        C366   1.398       .  A
C361        H368   1.083       .  S
C362        C363   1.402   1_545  A
C363        C364   1.399       .  A
C363        F370   1.358       .  S
C364        C365   1.409   1_565  A
C364        H369   1.083       .  S
C365        C366   1.410       .  A
C366        F367   1.357       .  S
C371        C372   1.410       .  A
C371        C376   1.398       .  A
C371        H378   1.083       .  S
C372        C373   1.412   1_565  A
C373        C374   1.399       .  A
C373        F380   1.357       .  S
C374        C375   1.401   1_545  A
C374        H379   1.083       .  S
C375        C376   1.401       .  A
C376        F377   1.357       .  S
C381        C382   1.409       .  A
C381        C386   1.399       .  A
C381        H388   1.083       .  S
C382        C383   1.413       .  A
C383        C384   1.397       .  A
C383        F390   1.357       .  S
C384        C385   1.399       .  A
C384        H389   1.083   1_554  S
C385        C386   1.402       .  A
C386        F387   1.357       .  S
C391        C392   1.409       .  A
C391        C396   1.396       .  A
C391        H398   1.083       .  S
C392        C393   1.412       .  A
C393        C394   1.399       .  A
C393        F400   1.357       .  S
C394        C395   1.401       .  A
C394        H399   1.083       .  S
C395        C396   1.402       .  A
C396        F397   1.357       .  S
C401        C402   1.409   1_565  A
C401        C406   1.397       .  A
C401        H408   1.083       .  S
C402        C403   1.410       .  A
C403        C404   1.397       .  A
C403        F410   1.357       .  S
C404        C405   1.400   1_545  A
C404        H409   1.083       .  S
C405        C406   1.401       .  A
C406        F407   1.357       .  S
C411        C412   1.401   1_556  A
C411        C416   1.400   1_556  A
C411        H418   1.083       .  S
C412        C413   1.401   1_545  A
C413        C414   1.397       .  A
C413        F420   1.357       .  S
C414        C415   1.409   1_565  A
C414        H419   1.083       .  S
C415        C416   1.413       .  A
C416        F417   1.357   1_554  S
C421        C422   1.400   1_455  A
C421        C426   1.399       .  A
C421        H428   1.083       .  S
C422        C423   1.403       .  A
C423        C424   1.401       .  A
C423        F430   1.357       .  S
C424        C425   1.409       .  A
C424        H429   1.083       .  S
C425        C426   1.414   1_655  A
C426        F427   1.357       .  S
C431        C432   1.403   1_455  A
C431        C436   1.402       .  A
C431        H438   1.083       .  S
C432        C433   1.403       .  A
C433        C434   1.399       .  A
C433        F440   1.357       .  S
C434        C435   1.409   1_655  A
C434        H439   1.083       .  S
C435        C436   1.412       .  A
C436        F437   1.357       .  S
C441        C442   1.404   1_455  A
C441        C446   1.401       .  A
C441        H448   1.083       .  S
C442        C443   1.406       .  A
C443        C444   1.398       .  A
C443        F450   1.358       .  S
C444        C445   1.403       .  A
C444        H449   1.083       .  S
C445        C446   1.405   1_655  A
C446        F447   1.357       .  S
C451        C452   1.405       .  A
C451        C456   1.401       .  A
C451        H458   1.083       .  S
C452        C453   1.406   1_655  A
C453        C454   1.402       .  A
C453        F460   1.357       .  S
C454        C455   1.405   1_455  A
C454        H459   1.083       .  S
C455        C456   1.407       .  A
C456        F457   1.357       .  S
C461        C462   1.401   1_655  A
C461        C466   1.398       .  A
C461        H468   1.083       .  S
C462        C463   1.402       .  A
C463        C464   1.398       .  A
C463        F470   1.358   1_556  S
C464        C465   1.409       .  A
C464        H469   1.083   1_556  S
C465        C466   1.411   1_455  A
C466        F467   1.357       .  S
C471        C472   1.401   1_655  A
C471        C476   1.400       .  A
C471        H478   1.083       .  S
C472        C473   1.403       .  A
C473        C474   1.400       .  A
C473        F480   1.358       .  S
C474        C475   1.409       .  A
C474        H479   1.083       .  S
C475        C476   1.412   1_455  A
C476        F477   1.357       .  S
