geometry optimzed in LAMMPS
_audit_creation_date              2020-12-01 
_audit_creation_method            'lammps2cif' 
_symmetry_space_group_name_H-M    'P1' 
_symmetry_Int_Tables_number       1 
_symmetry_cell_setting            triclinic 
loop_ 
_symmetry_equiv_pos_as_xyz 
  x,y,z 
_cell_length_a                    34.74644218 
_cell_length_b                    34.74454729434823 
_cell_length_c                    35.17259226800291 
_cell_angle_alpha                 89.99711290405367 
_cell_angle_beta                  89.9916519506394 
_cell_angle_gamma                 90.00320469719267 
loop_ 
_atom_site_label 
_atom_site_type_symbol 
_atom_site_fract_x 
_atom_site_fract_y 
_atom_site_fract_z 
_atom_site_charge 
C1          C  0.25502721  0.47097648  0.13064334     0.83100
N2          N  0.25596572  0.47077524  0.16920424    -0.75200
C3          C  0.25671214  0.50434289  0.18887224     0.85500
N4          N  0.25653197  0.53820555  0.16967920    -0.75200
C5          C  0.25571196  0.53857497  0.13111317     0.85600
N6          N  0.25489650  0.50491747  0.11144661    -0.76900
C7          C  0.25602109  0.53736458  0.28889707     0.83100
N8          N  0.25610744  0.53755648  0.25032726    -0.75200
C9          C  0.25721746  0.50401543  0.23063631     0.85500
N10         N  0.25823881  0.47015888  0.24980843    -0.75200
C11         C  0.25825044  0.46973365  0.28838287     0.85600
N12         N  0.25703859  0.50339394  0.30809141    -0.76900
C13         C  0.03246073  0.74621647  0.38087086     0.83100
N14         N  0.03282750  0.74571185  0.41944457    -0.75200
C15         C  0.99935341  0.74513965  0.43927301     0.85500
N16         N  0.96540526  0.74513934  0.42024062    -0.75200
C17         C  0.96481489  0.74568913  0.38167888     0.85600
N18         N  0.99839878  0.74624945  0.36182770    -0.76900
C19         C  0.03406214  0.74577033  0.03878541     0.83100
N20         N  0.03367893  0.74561770  0.00020071    -0.75200
C21         C  0.99980132  0.74486665  0.48104079     0.85500
N22         N  0.96626270  0.74431379  0.00075330    -0.75200
C23         C  0.96647877  0.74443517  0.03931495     0.85600
N24         N  0.00041696  0.74525372  0.05848560    -0.76900
Zn25       Zn  0.27905280  0.78886402  0.30389656     1.49700
Zn26       Zn  0.21806695  0.78338088  0.36997138     1.49400
Zn27       Zn  0.21378639  0.72293638  0.30322054     1.49100
Zn28       Zn  0.28372697  0.71838018  0.36356734     1.49500
O29         O  0.24889526  0.75310638  0.33509469    -1.81300
O30         O  0.27204691  0.84451580  0.31958725    -0.71900
O31         O  0.16157374  0.77298461  0.36456506    -0.71700
O32         O  0.22022705  0.73752325  0.24826167    -0.71200
O33         O  0.22736871  0.84005582  0.36459696    -0.71900
O34         O  0.26511952  0.78326403  0.24878946    -0.71500
O35         O  0.15778593  0.72959108  0.31827736    -0.72100
O36         O  0.27344853  0.66261718  0.34997672    -0.71500
O37         O  0.23222551  0.77005744  0.42294075    -0.72200
O38         O  0.22651224  0.66655417  0.30702491    -0.71600
O39         O  0.27785422  0.72519781  0.42068829    -0.72100
O40         O  0.33934073  0.72835614  0.34933756    -0.72000
O41         O  0.33535064  0.77639569  0.30760780    -0.71800
C42         C  0.25013102  0.85988479  0.34424600     0.80000
C43         C  0.14205638  0.75068241  0.34343326     0.80500
C44         C  0.24197920  0.76130189  0.23101367     0.79400
C45         C  0.25043693  0.64700978  0.32641746     0.79800
C46         C  0.25563916  0.74741666  0.43937310     0.81000
C47         C  0.35488928  0.75192310  0.32628703     0.80000
Zn48       Zn  0.28534045  0.71975069  0.05671784     1.49700
Zn49       Zn  0.21506269  0.72394925  0.11665910     1.49400
Zn50       Zn  0.28037210  0.78975065  0.11704803     1.49100
Zn51       Zn  0.21971293  0.78478253  0.05048737     1.49500
O52         O  0.25042972  0.75432970  0.08529041    -1.81300
O53         O  0.27560678  0.66401590  0.07074949    -0.71900
O54         O  0.22054135  0.73814101  0.17167722    -0.71700
O55         O  0.33685606  0.77750905  0.11305229    -0.71200
O56         O  0.22798377  0.66782471  0.11296160    -0.71900
O57         O  0.34104274  0.73040331  0.07028666    -0.71500
O58         O  0.26594762  0.78336899  0.17210150    -0.72100
O59         O  0.22925198  0.84139868  0.05606369    -0.71500
O60         O  0.15934451  0.73011834  0.10102047    -0.72200
O61         O  0.27309551  0.84564532  0.10189903    -0.71600
O62         O  0.16320124  0.77454002  0.05572543    -0.72100
O63         O  0.23327558  0.77101116  0.49748435    -0.72000
O64         O  0.27849692  0.72574198  0.49961176    -0.71800
C65         C  0.25228438  0.64837674  0.09398745     0.80000
C66         C  0.24230131  0.76150720  0.18939965     0.80500
C67         C  0.35653394  0.75365418  0.09369627     0.79400
C68         C  0.25155172  0.86115189  0.07698330     0.79800
C69         C  0.14369221  0.75160629  0.07618466     0.81000
C70         C  0.25611185  0.74783617  0.48098734     0.80000
C71         C  0.53387980  0.74771610  0.13178128     0.83100
N72         N  0.50027159  0.74882418  0.11197658    -0.75200
C73         C  0.46622457  0.74897768  0.13107497     0.85500
N74         N  0.46590405  0.74814125  0.16963609    -0.75200
C75         C  0.49938654  0.74708209  0.18941011     0.85600
N76         N  0.53331436  0.74689779  0.17033868    -0.76900
C77         C  0.53224992  0.74660020  0.28943901     0.83100
N78         N  0.49829349  0.74719960  0.30860902    -0.75200
C79         C  0.46464909  0.74751974  0.28889937     0.85500
N80         N  0.46506090  0.74733934  0.25031883    -0.75200
C81         C  0.49894554  0.74674885  0.23116658     0.85600
N82         N  0.53248057  0.74639339  0.25087882    -0.76900
Zn83       Zn  0.77784479  0.70931248  0.36803538     1.49700
Zn84       Zn  0.78380018  0.78038304  0.30902064     1.49400
Zn85       Zn  0.71892467  0.71526652  0.29967427     1.49100
Zn86       Zn  0.71232521  0.77479821  0.36755194     1.49500
O87         O  0.74845008  0.74516468  0.33613566    -1.81300
O88         O  0.83448837  0.72050524  0.36388065    -0.71900
O89         O  0.77803604  0.77547589  0.25175190    -0.71700
O90         O  0.72890396  0.65868237  0.30469091    -0.71200
O91         O  0.83932592  0.76926636  0.32304428    -0.71900
O92         O  0.76981415  0.65356416  0.35303148    -0.71500
O93         O  0.73302025  0.73013128  0.24674051    -0.72100
O94         O  0.65675442  0.76636733  0.35228831    -0.71500
O95         O  0.77338404  0.83582337  0.32364891    -0.72200
O96         O  0.66222119  0.72416574  0.30506612    -0.71600
O97         O  0.72364252  0.83144717  0.36336521    -0.72100
O98         O  0.71866020  0.76143081  0.42287147    -0.72000
O99         O  0.76410702  0.71618825  0.42321700    -0.71800
C100        C  0.85449495  0.74484934  0.34548758     0.80000
C101        C  0.75633549  0.75389585  0.23183332     0.80500
C102        C  0.74963501  0.63852106  0.32677471     0.79400
C103        C  0.64188995  0.74528122  0.32663555     0.79800
C104        C  0.74865909  0.85121047  0.34560192     0.81000
C105        C  0.74070262  0.73826963  0.44047545     0.80000
Zn106      Zn  0.71482769  0.71326194  0.05903997     1.49700
Zn107      Zn  0.78032620  0.77773282  0.04960786     1.49400
Zn108      Zn  0.72106431  0.78462601  0.11777424     1.49100
Zn109      Zn  0.78611054  0.71871811  0.11778817     1.49500
O110        O  0.75031410  0.74838851  0.08611505    -1.81300
O111        O  0.72019930  0.71851965  0.50175871    -0.71900
O112        O  0.77161607  0.83447788  0.05492252    -0.71700
O113        O  0.66426052  0.77377931  0.11347482    -0.71200
O114        O  0.76573649  0.76333501  0.49670064    -0.71900
O115        O  0.65940669  0.72433356  0.07343937    -0.71500
O116        O  0.73004403  0.84026522  0.10266495    -0.72100
O117        O  0.77957398  0.73216927  0.17297767    -0.71500
O118        O  0.83685184  0.76766538  0.05469381    -0.72200
O119        O  0.73453236  0.77781120  0.17312289    -0.71600
O120        O  0.84180738  0.72643624  0.10277551    -0.72100
O121        O  0.77467143  0.66224861  0.11353213    -0.72000
O122        O  0.72542280  0.65770030  0.07326048    -0.71800
C123        C  0.74205049  0.73993418  0.48181996     0.80000
C124        C  0.75096950  0.85498493  0.07677818     0.80500
C125        C  0.64424291  0.74910136  0.09550976     0.79400
C126        C  0.75768897  0.75554368  0.19048603     0.79800
C127        C  0.85691837  0.74671254  0.07664393     0.81000
C128        C  0.75001568  0.64240153  0.09541862     0.80000
C129        C  0.75393515  0.46452708  0.13004548     0.83100
N130        N  0.75369800  0.46386423  0.16861159    -0.75200
C131        C  0.75212565  0.49716013  0.18867377     0.85500
N132        N  0.75072959  0.53121681  0.16988005    -0.75200
C133        C  0.75082905  0.53206402  0.13131660     0.85600
N134        N  0.75247495  0.49867370  0.11123950    -0.76900
C135        C  0.75228180  0.46148192  0.28781708     0.83100
N136        N  0.75215868  0.49493817  0.30786408    -0.75200
C137        C  0.75199156  0.52909654  0.28901875     0.85500
N138        N  0.75190757  0.52969936  0.25045716    -0.75200
C139        C  0.75207639  0.49635231  0.23042569     0.85600
N140        N  0.75228861  0.46228303  0.24925003    -0.76900
C141        C  0.75153358  0.96157731  0.38173493     0.83100
N142        N  0.75167120  0.99501155  0.36164091    -0.75200
C143        C  0.75235949  0.02920215  0.38043286     0.85500
N144        N  0.75292586  0.02985421  0.41899677    -0.75200
C145        C  0.75276031  0.99652817  0.43907105     0.85600
N146        N  0.75204569  0.96243967  0.42029311    -0.76900
C147        C  0.75219986  0.96455262  0.03939873     0.83100
N148        N  0.75207406  0.96398639  0.00084031    -0.75200
C149        C  0.75315709  0.99732333  0.48082392     0.85500
N150        N  0.75440597  0.03136301  0.99966383    -0.75200
C151        C  0.75462621  0.03213774  0.03823569     0.85600
N152        N  0.75348371  0.99868082  0.05826665    -0.76900
Zn153      Zn  0.78551748  0.21531989  0.36938888     1.49700
Zn154      Zn  0.72027338  0.28018272  0.36082482     1.49400
Zn155      Zn  0.79126296  0.27512969  0.30185561     1.49100
Zn156      Zn  0.72591508  0.20945816  0.30136211     1.49500
O157        O  0.75547743  0.24518758  0.33328573    -1.81300
O158        O  0.77165439  0.22981037  0.42249457    -0.71900
O159        O  0.73040800  0.33574053  0.34649546    -0.71700
O160        O  0.84679825  0.26791447  0.31741281    -0.71200
O161        O  0.72640719  0.27496859  0.41797620    -0.71900
O162        O  0.84212880  0.22498946  0.36406286    -0.71500
O163        O  0.77925480  0.33155145  0.30571958    -0.72100
O164        O  0.74010022  0.21608268  0.24612762    -0.71500
O165        O  0.66473174  0.26926998  0.34695181    -0.72200
O166        O  0.78554846  0.26133401  0.24668411    -0.71600
O167        O  0.66919458  0.22110057  0.30538890    -0.72100
O168        O  0.73382899  0.15370343  0.31666248    -0.72000
O169        O  0.77584590  0.15870020  0.36411363    -0.71800
C170        C  0.74836320  0.25343002  0.43765190     0.80000
C171        C  0.75457508  0.35121274  0.32400972     0.80500
C172        C  0.86203914  0.24688498  0.34286873     0.79400
C173        C  0.76371387  0.23806729  0.22898553     0.79800
C174        C  0.64936556  0.24533312  0.32414985     0.81000
C175        C  0.75458006  0.13859741  0.34246741     0.80000
Zn176      Zn  0.71908514  0.21887203  0.05202277     1.51300
Zn177      Zn  0.72563069  0.27826067  0.11973560     1.49400
Zn178      Zn  0.79065355  0.21335411  0.11049222     1.49100
Zn179      Zn  0.78452768  0.28447206  0.05136113     1.49500
O180        O  0.75527107  0.24851376  0.08331465    -1.81300
O181        O  0.66349963  0.22731833  0.06709363    -0.71900
O182        O  0.73951263  0.26345658  0.17261604    -0.71700
O183        O  0.78012061  0.15783290  0.09597456    -0.71200
O184        O  0.66906295  0.26931609  0.11443959    -0.71900
O185        O  0.73020409  0.16231511  0.05649387    -0.71500
O186        O  0.78469051  0.21826358  0.16782007    -0.72100
O187        O  0.84129088  0.27359363  0.05580422    -0.71500
O188        O  0.73515329  0.33478696  0.11462080    -0.72200
O189        O  0.84622461  0.22466140  0.09645911    -0.71600
O190        O  0.77584327  0.34028832  0.06612799    -0.72100
O191        O  0.77085551  0.27725988  0.49612278    -0.72000
O192        O  0.72542727  0.23199155  0.49673726    -0.71800
C193        C  0.64869668  0.24832469  0.09282932     0.80000
C194        C  0.76277527  0.23974245  0.18763234     0.80500
C195        C  0.75517841  0.14249424  0.07422006     0.79400
C196        C  0.86136437  0.24925659  0.07415806     0.79800
C197        C  0.75551137  0.35514681  0.09239283     0.81000
C198        C  0.74740776  0.25509861  0.47900076     0.80000
C199        C  0.47154885  0.25051891  0.12997879     0.83100
N200        N  0.50531046  0.24942637  0.11053725    -0.75200
C201        C  0.53908595  0.24881439  0.12996545     0.85500
N202        N  0.53902210  0.24934169  0.16853413    -0.75200
C203        C  0.50532459  0.25045877  0.18797141     0.85600
N204        N  0.47162154  0.25104562  0.16854370    -0.76900
C205        C  0.53922527  0.24952227  0.28766445     0.83100
N206        N  0.50543311  0.25068439  0.30718163    -0.75200
C207        C  0.47158250  0.25196510  0.28777486     0.85500
N208        N  0.47166077  0.25196454  0.24919748    -0.75200
C209        C  0.50533482  0.25078896  0.22972505     0.85600
N210        N  0.53904382  0.24957113  0.24910345    -0.76900
C211        C  0.25634545  0.03718447  0.38127495     0.83100
N212        N  0.25630532  0.03730796  0.41984120    -0.75200
C213        C  0.25551528  0.00371904  0.43947545     0.85500
N214        N  0.25469964  0.96988981  0.42023456    -0.75200
C215        C  0.25467912  0.96958977  0.38164923     0.85600
N216        N  0.25545997  0.00328251  0.36202688    -0.76900
C217        C  0.25462141  0.97081422  0.03958579     0.83100
N218        N  0.25430322  0.00483416  0.05869831    -0.75200
C219        C  0.25447648  0.03845904  0.03891464     0.85500
N220        N  0.25496460  0.03795731  0.00035439    -0.75200
C221        C  0.25523721  0.00405573  0.48124687     0.85600
N222        N  0.25503356  0.97052943  0.00100527    -0.76900
C223        C  0.03912951  0.25494850  0.38001363     0.83100
N224        N  0.00532929  0.25371123  0.36063373    -0.75200
C225        C  0.97161277  0.25197311  0.38012409     0.85500
N226        N  0.97177585  0.25139355  0.41868596    -0.75200
C227        C  0.00549497  0.25254720  0.43807206     0.85600
N228        N  0.03914055  0.25429623  0.41858966    -0.76900
C229        C  0.03930219  0.25155189  0.03786684     0.83100
N230        N  0.00544471  0.25041518  0.05728346    -0.75200
C231        C  0.97163062  0.24990037  0.03778425     0.85500
N232        N  0.97180623  0.25057794  0.99922368    -0.75200
C233        C  0.00552176  0.25175506  0.47983192     0.85600
N234        N  0.03921399  0.25224474  0.99929375    -0.76900
Zn235      Zn  0.28460367  0.21723165  0.30236347     1.49700
Zn236      Zn  0.21988186  0.28358306  0.30253955     1.49400
Zn237      Zn  0.22509223  0.22380219  0.37009042     1.49100
Zn238      Zn  0.29098470  0.28813451  0.36164085     1.49500
O239        O  0.25542244  0.25343860  0.33408641    -1.81300
O240        O  0.27047721  0.22352078  0.24716415    -0.71900
O241        O  0.16407556  0.27626299  0.31764491    -0.71700
O242        O  0.23445538  0.16714931  0.36526825    -0.71200
O243        O  0.22597768  0.26970501  0.24736755    -0.71900
O244        O  0.27640983  0.16163414  0.31785390    -0.71500
O245        O  0.16866064  0.23337663  0.36432681    -0.72100
O246        O  0.28479780  0.28262468  0.41890542    -0.71500
O247        O  0.23215070  0.33999585  0.30664033    -0.72200
O248        O  0.23866387  0.23832340  0.42311132    -0.71600
O249        O  0.28109870  0.34389184  0.34734685    -0.72100
O250        O  0.34652603  0.27667654  0.34756325    -0.72000
O251        O  0.34132384  0.22836105  0.30624690    -0.71800
C252        C  0.24736162  0.24586933  0.22985195     0.80000
C253        C  0.14876926  0.25509303  0.34297660     0.80500
C254        C  0.25557909  0.14679996  0.34373293     0.79400
C255        C  0.26234811  0.26141256  0.43843012     0.79800
C256        C  0.25695335  0.35952981  0.32492253     0.81000
C257        C  0.36151930  0.25242151  0.32481210     0.80000
Zn258      Zn  0.22036857  0.21967030  0.11173099     1.49700
Zn259      Zn  0.22572408  0.29067881  0.05244717     1.49400
Zn260      Zn  0.28552967  0.28462906  0.12007727     1.49100
Zn261      Zn  0.29112506  0.22510725  0.05235764     1.49500
O262        O  0.25539911  0.25479817  0.08408255    -1.81300
O263        O  0.16472445  0.23024944  0.09755611    -0.71900
O264        O  0.23374140  0.34638213  0.06777106    -0.71700
O265        O  0.27164305  0.27049854  0.17316026    -0.71200
O266        O  0.16909846  0.27891803  0.05653337    -0.71900
O267        O  0.22635952  0.22533901  0.16896327    -0.71500
O268        O  0.27623019  0.34118361  0.11475973    -0.72100
O269        O  0.34674032  0.23269979  0.06745168    -0.71500
O270        O  0.23970862  0.28444199  0.49716566    -0.72200
O271        O  0.34201348  0.27502322  0.11461232    -0.71600
O272        O  0.28507181  0.23911876  0.49725685    -0.72100
O273        O  0.27951545  0.16858767  0.05641731    -0.72000
O274        O  0.23108137  0.16406921  0.09766345    -0.71800
C275        C  0.14931931  0.25439117  0.07496221     0.80000
C276        C  0.25487442  0.36138058  0.09332087     0.80500
C277        C  0.24829980  0.24705964  0.18848760     0.79400
C278        C  0.36195622  0.25357145  0.09304211     0.79800
C279        C  0.26325032  0.26258378  0.47979575     0.81000
C280        C  0.25522112  0.14874208  0.07503348     0.80000
C281        C  0.10851606  0.25306465  0.06839154    -0.10400
C282        C  0.07560826  0.25221447  0.05743679    -0.12000
C283        C  0.07523077  0.25624020  0.36030143    -0.10400
C284        C  0.10801123  0.25638224  0.34913141    -0.12000
C285        C  0.25432733  0.10792135  0.06876827    -0.10400
C286        C  0.25418637  0.07493462  0.05809510    -0.12000
C287        C  0.25681884  0.07328429  0.36147633    -0.10400
C288        C  0.25665687  0.10606217  0.35025077    -0.12000
C289        C  0.43527819  0.25277475  0.30735188    -0.10400
C290        C  0.40235169  0.25295029  0.31829495    -0.12000
C291        C  0.43542940  0.25116472  0.11035652    -0.10400
C292        C  0.40265789  0.25202536  0.09926965    -0.12000
C293        C  0.57520446  0.24785984  0.11031263    -0.10400
C294        C  0.60796727  0.24761567  0.09912681    -0.12000
C295        C  0.90224516  0.24881142  0.06792056    -0.10400
C296        C  0.93525302  0.24903434  0.05722295    -0.12000
C297        C  0.60854609  0.24667087  0.31775751    -0.10400
C298        C  0.57557350  0.24799719  0.30707327    -0.12000
C299        C  0.90270067  0.24889199  0.34942504    -0.10400
C300        C  0.93544954  0.25045530  0.36056372    -0.12000
C301        C  0.75562645  0.06870824  0.05720390    -0.10400
C302        C  0.75587430  0.10168857  0.06788432    -0.12000
C303        C  0.75315874  0.09782540  0.34885287    -0.10400
C304        C  0.75256717  0.06507750  0.36019012    -0.12000
C305        C  0.75259686  0.42490727  0.30677244    -0.10400
C306        C  0.75322747  0.39195943  0.31750812    -0.12000
C307        C  0.75548421  0.42870806  0.10980432    -0.10400
C308        C  0.75612310  0.39595843  0.09851288    -0.12000
C309        C  0.74965740  0.56863804  0.11239867    -0.10400
C310        C  0.74931234  0.60160924  0.10172562    -0.12000
C311        C  0.75060885  0.89581448  0.07064618    -0.10400
C312        C  0.75110321  0.92863759  0.05952891    -0.12000
C313        C  0.75108260  0.59775547  0.32044753    -0.10400
C314        C  0.75172571  0.56498908  0.30919530    -0.12000
C315        C  0.74984374  0.89197589  0.35217124    -0.10400
C316        C  0.75069147  0.92494881  0.36285551    -0.12000
C317        C  0.56830563  0.74644374  0.30928578    -0.10400
C318        C  0.60111966  0.74614084  0.32037380    -0.12000
C319        C  0.60341923  0.74835997  0.10197250    -0.10400
C320        C  0.57041634  0.74793480  0.11265045    -0.12000
C321        C  0.43014596  0.75049400  0.11120585    -0.10400
C322        C  0.39730955  0.75194022  0.10016122    -0.12000
C323        C  0.25414551  0.93474643  0.05951607    -0.10400
C324        C  0.25328601  0.90194095  0.07069940    -0.12000
C325        C  0.39554340  0.74994929  0.31944148    -0.10400
C326        C  0.42831205  0.74860532  0.30825717    -0.12000
C327        C  0.25207916  0.90056621  0.35094764    -0.10400
C328        C  0.25344788  0.93331718  0.36218048    -0.12000
C329        C  0.10307058  0.74898177  0.06943183    -0.10400
C330        C  0.07035299  0.74720025  0.05818463    -0.12000
C331        C  0.89764965  0.74512776  0.07032051    -0.10400
C332        C  0.93043405  0.74445965  0.05917224    -0.12000
C333        C  0.06849044  0.74715156  0.36088670    -0.10400
C334        C  0.10128746  0.74843289  0.34971346    -0.12000
C335        C  0.92829419  0.74574805  0.36256150    -0.10400
C336        C  0.89531217  0.74555094  0.35185669    -0.12000
C337        C  0.25840048  0.40033168  0.31848241    -0.10400
C338        C  0.25873864  0.43328463  0.30766063    -0.12000
C339        C  0.25428498  0.57347232  0.30870507    -0.10400
C340        C  0.25253231  0.60627259  0.31981599    -0.12000
C341        C  0.25420947  0.60769847  0.10062312    -0.10400
C342        C  0.25517660  0.57489814  0.11173492    -0.12000
C343        C  0.25395335  0.40214796  0.09959278    -0.10400
C344        C  0.25414549  0.43492728  0.11079212    -0.12000
C345        C  0.25502730  0.47097566  0.63064372     0.83100
N346        N  0.25596560  0.47077560  0.66920416    -0.75200
C347        C  0.25671204  0.50434272  0.68887163     0.85500
N348        N  0.25653206  0.53820532  0.66967958    -0.75200
C349        C  0.25571208  0.53857512  0.63111295     0.85600
N350        N  0.25489662  0.50491766  0.61144647    -0.76900
C351        C  0.25602105  0.53736389  0.78889751     0.83100
N352        N  0.25610734  0.53755658  0.75032676    -0.75200
C353        C  0.25721733  0.50401610  0.73063658     0.85500
N354        N  0.25823880  0.47015813  0.74980910    -0.75200
C355        C  0.25825045  0.46973447  0.78838144     0.85600
N356        N  0.25703856  0.50339412  0.80809171    -0.76900
C357        C  0.03246089  0.74621667  0.88087044     0.83100
N358        N  0.03282740  0.74571185  0.91944507    -0.75200
C359        C  0.99935322  0.74513961  0.93927263     0.85500
N360        N  0.96540539  0.74513944  0.92024022    -0.75200
C361        C  0.96481453  0.74568907  0.88168001     0.85600
N362        N  0.99839887  0.74624946  0.86182752    -0.76900
C363        C  0.03406197  0.74577020  0.53878583     0.83100
N364        N  0.03367922  0.74561763  0.50020038    -0.75200
C365        C  0.99980198  0.74486666  0.98104117     0.85500
N366        N  0.96626269  0.74431381  0.50075366    -0.75200
C367        C  0.96647920  0.74443531  0.53931452     0.85600
N368        N  0.00041686  0.74525380  0.55848547    -0.76900
Zn369      Zn  0.27905281  0.78886399  0.80389651     1.49700
Zn370      Zn  0.21806701  0.78338083  0.86997141     1.49400
Zn371      Zn  0.21378638  0.72293629  0.80322056     1.49100
Zn372      Zn  0.28372699  0.71838020  0.86356741     1.49500
O373        O  0.24889513  0.75310635  0.83509478    -1.81300
O374        O  0.27204672  0.84451588  0.81958732    -0.71900
O375        O  0.16157425  0.77298489  0.86456523    -0.71700
O376        O  0.22022716  0.73752323  0.74826155    -0.71200
O377        O  0.22736874  0.84005565  0.86459719    -0.71900
O378        O  0.26511952  0.78326409  0.74878940    -0.71500
O379        O  0.15778615  0.72959105  0.81827735    -0.72100
O380        O  0.27344853  0.66261721  0.84997672    -0.71500
O381        O  0.23222543  0.77005741  0.92294088    -0.72200
O382        O  0.22651212  0.66655423  0.80702492    -0.71600
O383        O  0.27785407  0.72519804  0.92068862    -0.72100
O384        O  0.33934049  0.72835612  0.84933775    -0.72000
O385        O  0.33535052  0.77639556  0.80760772    -0.71800
C386        C  0.25013150  0.85988461  0.84424564     0.80000
C387        C  0.14205525  0.75068211  0.84343293     0.80500
C388        C  0.24197917  0.76130187  0.73101419     0.79400
C389        C  0.25043717  0.64700899  0.82641759     0.79800
C390        C  0.25563963  0.74741604  0.93937265     0.81000
C391        C  0.35488967  0.75192343  0.82628661     0.80000
Zn392      Zn  0.28534046  0.71975062  0.55671780     1.49700
Zn393      Zn  0.21506267  0.72394929  0.61665908     1.49400
Zn394      Zn  0.28037210  0.78975068  0.61704798     1.49100
Zn395      Zn  0.21971304  0.78478250  0.55048735     1.49500
O396        O  0.25042983  0.75432972  0.58529050    -1.81300
O397        O  0.27560680  0.66401604  0.57074944    -0.71900
O398        O  0.22054143  0.73814129  0.67167762    -0.71700
O399        O  0.33685605  0.77750913  0.61305215    -0.71200
O400        O  0.22798365  0.66782491  0.61296175    -0.71900
O401        O  0.34104262  0.73040324  0.57028655    -0.71500
O402        O  0.26594756  0.78336896  0.67210185    -0.72100
O403        O  0.22925213  0.84139879  0.55606358    -0.71500
O404        O  0.15934468  0.73011844  0.60102042    -0.72200
O405        O  0.27309526  0.84564565  0.60189884    -0.71600
O406        O  0.16320162  0.77454019  0.55572524    -0.72100
O407        O  0.23327529  0.77101151  0.99748479    -0.72000
O408        O  0.27849680  0.72574212  0.99961213    -0.71800
C409        C  0.25228461  0.64837629  0.59398733     0.80000
C410        C  0.24230125  0.76150713  0.68939838     0.80500
C411        C  0.35653435  0.75365449  0.59369650     0.79400
C412        C  0.25155215  0.86115097  0.57698387     0.79800
C413        C  0.14369141  0.75160603  0.57618476     0.81000
C414        C  0.25611231  0.74783560  0.98098675     0.80000
C415        C  0.53387954  0.74771608  0.63178141     0.83100
N416        N  0.50027174  0.74882415  0.61197611    -0.75200
C417        C  0.46622457  0.74897777  0.63107576     0.85500
N418        N  0.46590376  0.74814117  0.66963583    -0.75200
C419        C  0.49938693  0.74708200  0.68940894     0.85600
N420        N  0.53331416  0.74689768  0.67033910    -0.76900
C421        C  0.53225027  0.74660016  0.78943853     0.83100
N422        N  0.49829347  0.74719963  0.80860949    -0.75200
C423        C  0.46464914  0.74751984  0.78889817     0.85500
N424        N  0.46506071  0.74733925  0.75031914    -0.75200
C425        C  0.49894631  0.74674887  0.73116744     0.85600
N426        N  0.53248021  0.74639337  0.75087845    -0.76900
Zn427      Zn  0.77784485  0.70931251  0.86803542     1.49700
Zn428      Zn  0.78380014  0.78038310  0.80902060     1.49400
Zn429      Zn  0.71892481  0.71526655  0.79967427     1.49100
Zn430      Zn  0.71232533  0.77479817  0.86755199     1.49500
O431        O  0.74845035  0.74516461  0.83613554    -1.81300
O432        O  0.83448860  0.72050532  0.86388068    -0.71900
O433        O  0.77803577  0.77547586  0.75175174    -0.71700
O434        O  0.72890401  0.65868247  0.80469097    -0.71200
O435        O  0.83932600  0.76926634  0.82304424    -0.71900
O436        O  0.76981420  0.65356436  0.85303163    -0.71500
O437        O  0.73302028  0.73013104  0.74674052    -0.72100
O438        O  0.65675457  0.76636716  0.85228834    -0.71500
O439        O  0.77338409  0.83582324  0.82364883    -0.72200
O440        O  0.66222154  0.72416570  0.80506596    -0.71600
O441        O  0.72364255  0.83144703  0.86336536    -0.72100
O442        O  0.71866018  0.76143089  0.92287132    -0.72000
O443        O  0.76410709  0.71618825  0.92321683    -0.71800
C444        C  0.85449484  0.74484924  0.84548742     0.80000
C445        C  0.75633609  0.75389645  0.73183356     0.80500
C446        C  0.74963489  0.63852092  0.82677471     0.79400
C447        C  0.64188955  0.74528174  0.82663599     0.79800
C448        C  0.74865896  0.85121098  0.84560212     0.81000
C449        C  0.74070296  0.73826942  0.94047646     0.80000
Zn450      Zn  0.71482775  0.71326198  0.55904001     1.49700
Zn451      Zn  0.78032624  0.77773279  0.54960781     1.49400
Zn452      Zn  0.72106430  0.78462601  0.61777430     1.49100
Zn453      Zn  0.78611058  0.71871819  0.61778812     1.49500
O454        O  0.75031398  0.74838862  0.58611502    -1.81300
O455        O  0.72019924  0.71851961  0.00175896    -0.71900
O456        O  0.77161599  0.83447796  0.55492254    -0.71700
O457        O  0.66426078  0.77377951  0.61347488    -0.71200
O458        O  0.76573660  0.76333520  0.99670111    -0.71900
O459        O  0.65940698  0.72433346  0.57343944    -0.71500
O460        O  0.73004423  0.84026543  0.60266501    -0.72100
O461        O  0.77957390  0.73216953  0.67297757    -0.71500
O462        O  0.83685161  0.76766552  0.55469354    -0.72200
O463        O  0.73453214  0.77781122  0.67312279    -0.71600
O464        O  0.84180739  0.72643647  0.60277533    -0.72100
O465        O  0.77467175  0.66224904  0.61353236    -0.72000
O466        O  0.72542308  0.65770047  0.57326055    -0.71800
C467        C  0.74205011  0.73993375  0.98181889     0.80000
C468        C  0.75096937  0.85498416  0.57677846     0.80500
C469        C  0.64424210  0.74910123  0.59550960     0.79400
C470        C  0.75768952  0.75554300  0.69048568     0.79800
C471        C  0.85691898  0.74671214  0.57664444     0.81000
C472        C  0.75001479  0.64240072  0.59541782     0.80000
C473        C  0.75393517  0.46452714  0.63004540     0.83100
N474        N  0.75369803  0.46386456  0.66861156    -0.75200
C475        C  0.75212586  0.49715976  0.68867399     0.85500
N476        N  0.75072961  0.53121666  0.66987975    -0.75200
C477        C  0.75082889  0.53206480  0.63131690     0.85600
N478        N  0.75247489  0.49867327  0.61123948    -0.76900
C479        C  0.75228184  0.46148163  0.78781695     0.83100
N480        N  0.75215860  0.49493809  0.80786437    -0.75200
C481        C  0.75199161  0.52909724  0.78901854     0.85500
N482        N  0.75190767  0.52969926  0.75045700    -0.75200
C483        C  0.75207654  0.49635209  0.73042629     0.85600
N484        N  0.75228871  0.46228346  0.74924985    -0.76900
C485        C  0.75153363  0.96157664  0.88173497     0.83100
N486        N  0.75167117  0.99501161  0.86164060    -0.75200
C487        C  0.75235954  0.02920300  0.88043307     0.85500
N488        N  0.75292580  0.02985385  0.91899685    -0.75200
C489        C  0.75276020  0.99652857  0.93907068     0.85600
N490        N  0.75204565  0.96244005  0.92029319    -0.76900
C491        C  0.75219975  0.96455214  0.53939982     0.83100
N492        N  0.75207406  0.96398657  0.50083949    -0.75200
C493        C  0.75315707  0.99732348  0.98082386     0.85500
N494        N  0.75440600  0.03136309  0.49966428    -0.75200
C495        C  0.75462619  0.03213740  0.53823482     0.85600
N496        N  0.75348362  0.99868102  0.55826654    -0.76900
Zn497      Zn  0.78551745  0.21531995  0.86938880     1.49700
Zn498      Zn  0.72027337  0.28018267  0.86082479     1.49400
Zn499      Zn  0.79126295  0.27512977  0.80185548     1.49100
Zn500      Zn  0.72591510  0.20945818  0.80136207     1.49500
O501        O  0.75547732  0.24518779  0.83328549    -1.81300
O502        O  0.77165442  0.22981038  0.92249428    -0.71900
O503        O  0.73040789  0.33574037  0.84649562    -0.71700
O504        O  0.84679831  0.26791441  0.81741278    -0.71200
O505        O  0.72640705  0.27496876  0.91797587    -0.71900
O506        O  0.84212881  0.22498953  0.86406275    -0.71500
O507        O  0.77925461  0.33155161  0.80571955    -0.72100
O508        O  0.74010013  0.21608264  0.74612772    -0.71500
O509        O  0.66473164  0.26926993  0.84695179    -0.72200
O510        O  0.78554823  0.26133395  0.74668402    -0.71600
O511        O  0.66919431  0.22110062  0.80538896    -0.72100
O512        O  0.73382906  0.15370334  0.81666259    -0.72000
O513        O  0.77584602  0.15870027  0.86411361    -0.71800
C514        C  0.74836346  0.25342974  0.93765256     0.80000
C515        C  0.75457561  0.35121278  0.82400928     0.80500
C516        C  0.86203856  0.24688541  0.84286828     0.79400
C517        C  0.76371411  0.23806767  0.72898568     0.79800
C518        C  0.64936598  0.24533289  0.82414965     0.81000
C519        C  0.75457954  0.13859759  0.84246683     0.80000
Zn520      Zn  0.71908517  0.21887206  0.55202283     1.51300
Zn521      Zn  0.72563072  0.27826071  0.61973561     1.49400
Zn522      Zn  0.79065361  0.21335405  0.61049222     1.49100
Zn523      Zn  0.78452764  0.28447203  0.55136108     1.49500
O524        O  0.75527127  0.24851373  0.58331483    -1.81300
O525        O  0.66349961  0.22731841  0.56709380    -0.71900
O526        O  0.73951256  0.26345673  0.67261580    -0.71700
O527        O  0.78012077  0.15783300  0.59597465    -0.71200
O528        O  0.66906315  0.26931625  0.61443969    -0.71900
O529        O  0.73020397  0.16231538  0.55649397    -0.71500
O530        O  0.78469054  0.21826349  0.66781982    -0.72100
O531        O  0.84129073  0.27359376  0.55580398    -0.71500
O532        O  0.73515318  0.33478671  0.61462093    -0.72200
O533        O  0.84622481  0.22466163  0.59645899    -0.71600
O534        O  0.77584320  0.34028818  0.56612796    -0.72100
O535        O  0.77085534  0.27725968  0.99612248    -0.72000
O536        O  0.72542728  0.23199157  0.99673708    -0.71800
C537        C  0.64869667  0.24832440  0.59282891     0.80000
C538        C  0.76277523  0.23974230  0.68763314     0.80500
C539        C  0.75517858  0.14249342  0.57422010     0.79400
C540        C  0.86136474  0.24925579  0.57415873     0.79800
C541        C  0.75551169  0.35514777  0.59239240     0.81000
C542        C  0.74740837  0.25509917  0.97900158     0.80000
C543        C  0.47154884  0.25051902  0.62997879     0.83100
N544        N  0.50531035  0.24942648  0.61053713    -0.75200
C545        C  0.53908580  0.24881449  0.62996578     0.85500
N546        N  0.53902226  0.24934181  0.66853433    -0.75200
C547        C  0.50532412  0.25045891  0.68797060     0.85600
N548        N  0.47162191  0.25104573  0.66854409    -0.76900
C549        C  0.53922456  0.24952246  0.78766400     0.83100
N550        N  0.50543317  0.25068435  0.80718177    -0.75200
C551        C  0.47158328  0.25196506  0.78777469     0.85500
N552        N  0.47166030  0.25196466  0.74919744    -0.75200
C553        C  0.50533494  0.25078904  0.72972530     0.85600
N554        N  0.53904413  0.24957116  0.74910372    -0.76900
C555        C  0.25634536  0.03718462  0.88127503     0.83100
N556        N  0.25630535  0.03730789  0.91984121    -0.75200
C557        C  0.25551529  0.00371929  0.93947558     0.85500
N558        N  0.25469953  0.96988972  0.92023437    -0.75200
C559        C  0.25467906  0.96958976  0.88164957     0.85600
N560        N  0.25545998  0.00328247  0.86202680    -0.76900
C561        C  0.25462147  0.97081381  0.53958561     0.83100
N562        N  0.25430316  0.00483442  0.55869848    -0.75200
C563        C  0.25447656  0.03845901  0.53891433     0.85500
N564        N  0.25496461  0.03795717  0.50035453    -0.75200
C565        C  0.25523729  0.00405532  0.98124704     0.85600
N566        N  0.25503358  0.97052912  0.50100548    -0.76900
C567        C  0.03912955  0.25494842  0.88001373     0.83100
N568        N  0.00532924  0.25371117  0.86063383    -0.75200
C569        C  0.97161262  0.25197320  0.88012421     0.85500
N570        N  0.97177591  0.25139351  0.91868583    -0.75200
C571        C  0.00549467  0.25254701  0.93807263     0.85600
N572        N  0.03914069  0.25429628  0.91858941    -0.76900
C573        C  0.03930241  0.25155185  0.53786674     0.83100
N574        N  0.00544446  0.25041517  0.55728368    -0.75200
C575        C  0.97163072  0.24990048  0.53778361     0.85500
N576        N  0.97180601  0.25057782  0.49922416    -0.75200
C577        C  0.00552157  0.25175500  0.97983208     0.85600
N578        N  0.03921397  0.25224479  0.49929379    -0.76900
Zn579      Zn  0.28460366  0.21723171  0.80236344     1.49700
Zn580      Zn  0.21988185  0.28358315  0.80253955     1.49400
Zn581      Zn  0.22509224  0.22380220  0.87009035     1.49100
Zn582      Zn  0.29098471  0.28813460  0.86164075     1.49500
O583        O  0.25542236  0.25343869  0.83408623    -1.81300
O584        O  0.27047711  0.22352089  0.74716418    -0.71900
O585        O  0.16407541  0.27626293  0.81764504    -0.71700
O586        O  0.23445540  0.16714938  0.86526820    -0.71200
O587        O  0.22597750  0.26970523  0.74736786    -0.71900
O588        O  0.27640976  0.16163426  0.81785395    -0.71500
O589        O  0.16866061  0.23337655  0.86432693    -0.72100
O590        O  0.28479789  0.28262475  0.91890530    -0.71500
O591        O  0.23215062  0.33999598  0.80664038    -0.72200
O592        O  0.23866398  0.23832348  0.92311127    -0.71600
O593        O  0.28109866  0.34389188  0.84734670    -0.72100
O594        O  0.34652619  0.27667661  0.84756307    -0.72000
O595        O  0.34132370  0.22836102  0.80624681    -0.71800
C596        C  0.24736236  0.24586877  0.72985162     0.80000
C597        C  0.14876931  0.25509342  0.84297619     0.80500
C598        C  0.25557912  0.14680029  0.84373284     0.79400
C599        C  0.26234777  0.26141239  0.93842986     0.79800
C600        C  0.25695338  0.35952986  0.82492254     0.81000
C601        C  0.36151955  0.25242187  0.82481231     0.80000
Zn602      Zn  0.22036859  0.21967035  0.61173105     1.49700
Zn603      Zn  0.22572407  0.29067884  0.55244723     1.49400
Zn604      Zn  0.28552965  0.28462902  0.62007730     1.49100
Zn605      Zn  0.29112502  0.22510721  0.55235771     1.49500
O606        O  0.25539917  0.25479835  0.58408275    -1.81300
O607        O  0.16472450  0.23024968  0.59755608    -0.71900
O608        O  0.23374146  0.34638248  0.56777130    -0.71700
O609        O  0.27164318  0.27049860  0.67316023    -0.71200
O610        O  0.16909851  0.27891819  0.55653327    -0.71900
O611        O  0.22635967  0.22533913  0.66896345    -0.71500
O612        O  0.27623007  0.34118400  0.61475975    -0.72100
O613        O  0.34674027  0.23269970  0.56745166    -0.71500
O614        O  0.23970838  0.28444199  0.99716555    -0.72200
O615        O  0.34201341  0.27502327  0.61461228    -0.71600
O616        O  0.28507175  0.23911906  0.99725647    -0.72100
O617        O  0.27951551  0.16858762  0.55641724    -0.72000
O618        O  0.23108152  0.16406917  0.59766346    -0.71800
C619        C  0.14931945  0.25439095  0.57496255     0.80000
C620        C  0.25487466  0.36137919  0.59332088     0.80500
C621        C  0.24829952  0.24705947  0.68848751     0.79400
C622        C  0.36195614  0.25357155  0.59304226     0.79800
C623        C  0.26325096  0.26258319  0.97979603     0.81000
C624        C  0.25522086  0.14874190  0.57503372     0.80000
C625        C  0.10851588  0.25306472  0.56839149    -0.10400
C626        C  0.07560837  0.25221455  0.55743694    -0.12000
C627        C  0.07523067  0.25624024  0.86030146    -0.10400
C628        C  0.10801128  0.25638206  0.84913144    -0.12000
C629        C  0.25432717  0.10792203  0.56876837    -0.10400
C630        C  0.25418646  0.07493407  0.55809499    -0.12000
C631        C  0.25681900  0.07328415  0.86147651    -0.10400
C632        C  0.25665683  0.10606224  0.85025074    -0.12000
C633        C  0.43527787  0.25277487  0.80735197    -0.10400
C634        C  0.40235181  0.25295017  0.81829474    -0.12000
C635        C  0.43542893  0.25116483  0.61035639    -0.10400
C636        C  0.40265820  0.25202540  0.59926972    -0.12000
C637        C  0.57520514  0.24785983  0.61031225    -0.10400
C638        C  0.60796651  0.24761590  0.59912717    -0.12000
C639        C  0.90224420  0.24881146  0.56792073    -0.10400
C640        C  0.93525373  0.24903440  0.55722267    -0.12000
C641        C  0.60854658  0.24667083  0.81775775    -0.10400
C642        C  0.57557315  0.24799702  0.80707309    -0.12000
C643        C  0.90270071  0.24889200  0.84942493    -0.10400
C644        C  0.93544957  0.25045525  0.86056367    -0.12000
C645        C  0.75562637  0.06870830  0.55720405    -0.10400
C646        C  0.75587422  0.10168882  0.56788432    -0.12000
C647        C  0.75315879  0.09782536  0.84885284    -0.10400
C648        C  0.75256717  0.06507739  0.86019012    -0.12000
C649        C  0.75259683  0.42490746  0.80677260    -0.10400
C650        C  0.75322738  0.39195948  0.81750826    -0.12000
C651        C  0.75548417  0.42870816  0.60980439    -0.10400
C652        C  0.75612298  0.39595829  0.59851291    -0.12000
C653        C  0.74965731  0.56863793  0.61239866    -0.10400
C654        C  0.74931252  0.60160912  0.60172561    -0.12000
C655        C  0.75060899  0.89581484  0.57064608    -0.10400
C656        C  0.75110320  0.92863757  0.55952876    -0.12000
C657        C  0.75108247  0.59775538  0.82044763    -0.10400
C658        C  0.75172561  0.56498920  0.80919544    -0.12000
C659        C  0.74984361  0.89197562  0.85217123    -0.10400
C660        C  0.75069140  0.92494907  0.86285565    -0.12000
C661        C  0.56830565  0.74644383  0.80928600    -0.10400
C662        C  0.60111964  0.74614071  0.82037369    -0.12000
C663        C  0.60341933  0.74835993  0.60197241    -0.10400
C664        C  0.57041670  0.74793472  0.61265027    -0.12000
C665        C  0.43014652  0.75049408  0.61120584    -0.10400
C666        C  0.39730882  0.75194034  0.60016095    -0.12000
C667        C  0.25414545  0.93474712  0.55951583    -0.10400
C668        C  0.25328589  0.90194069  0.57069934    -0.12000
C669        C  0.39554322  0.74994938  0.81944151    -0.10400
C670        C  0.42831211  0.74860527  0.80825727    -0.12000
C671        C  0.25207913  0.90056626  0.85094780    -0.10400
C672        C  0.25344781  0.93331705  0.86218021    -0.12000
C673        C  0.10307074  0.74898184  0.56943166    -0.10400
C674        C  0.07035318  0.74720032  0.55818447    -0.12000
C675        C  0.89764899  0.74512796  0.57032061    -0.10400
C676        C  0.93043458  0.74445977  0.55917221    -0.12000
C677        C  0.06849079  0.74715163  0.86088658    -0.10400
C678        C  0.10128738  0.74843312  0.84971366    -0.12000
C679        C  0.92829437  0.74574812  0.86256134    -0.10400
C680        C  0.89531211  0.74555100  0.85185663    -0.12000
C681        C  0.25840051  0.40033118  0.81848240    -0.10400
C682        C  0.25873854  0.43328486  0.80766059    -0.12000
C683        C  0.25428513  0.57347160  0.80870467    -0.10400
C684        C  0.25253225  0.60627356  0.81981642    -0.12000
C685        C  0.25420946  0.60769784  0.60062345    -0.10400
C686        C  0.25517674  0.57489896  0.61173460    -0.12000
C687        C  0.25395331  0.40214855  0.59959287    -0.10400
C688        C  0.25414557  0.43492730  0.61079193    -0.12000
loop_ 
_geom_bond_atom_site_label_1 
_geom_bond_atom_site_label_2 
_geom_bond_distance 
_geom_bond_site_symmetry_2 
_ccdc_geom_bond_type 
C1            N2   1.357       .  A
C1            N6   1.359       .  A
C1          C344   1.434       .  S
N2            C3   1.356       .  A
C3            N4   1.356       .  A
C3            C9   1.469       .  S
N4            C5   1.357       .  A
C5            N6   1.359       .  A
C5          C342   1.434       .  S
C7            N8   1.357       .  A
C7           N12   1.360       .  A
C7          C339   1.436       .  S
N8            C9   1.356       .  A
C9           N10   1.356       .  A
N10          C11   1.357       .  A
C11          N12   1.360       .  A
C11         C338   1.437       .  S
C13          N14   1.357       .  A
C13          N18   1.360   1_455  A
C13         C333   1.436       .  S
N14          C15   1.356   1_455  A
C15          N16   1.356       .  A
C15          C21   1.469       .  S
N16          C17   1.357       .  A
C17          N18   1.360       .  A
C17         C335   1.436       .  S
C19          N20   1.357       .  A
C19          N24   1.359       .  A
C19         C330   1.435       .  S
N20         C365   1.357   1_454  A
C21         N364   1.357   1_655  A
C21         N366   1.356       .  A
N22          C23   1.356       .  A
N22         C365   1.356   1_554  A
C23          N24   1.359   1_655  A
C23         C332   1.434       .  S
Zn25         O29   1.961       .  S
Zn25         O30   2.026       .  S
Zn25         O34   2.007       .  S
Zn25         O41   2.008       .  S
Zn26         O29   1.939       .  S
Zn26         O31   2.005       .  S
Zn26         O33   2.004       .  S
Zn26         O37   1.982       .  S
Zn27         O29   1.961       .  S
Zn27         O32   2.011       .  S
Zn27         O35   2.030       .  S
Zn27         O38   2.013       .  S
Zn28         O29   1.981       .  S
Zn28         O36   2.027       .  S
Zn28         O39   2.033       .  S
Zn28         O40   2.026       .  S
O30          C42   1.272       .  A
O31          C43   1.270       .  A
O32          C44   1.273       .  A
O33          C42   1.270       .  A
O34          C44   1.273       .  A
O35          C43   1.272       .  A
O36          C45   1.273       .  A
O37          C46   1.271       .  A
O38          C45   1.272       .  A
O39          C46   1.274       .  A
O40          C47   1.273       .  A
O41          C47   1.271       .  A
C42         C327   1.435       .  S
C43         C334   1.436       .  S
C44          C66   1.464       .  S
C45         C340   1.436       .  S
C46          C70   1.464       .  S
C47         C325   1.435       .  S
Zn48         O52   1.981       .  S
Zn48         O53   2.027       .  S
Zn48         O57   2.028       .  S
Zn48        O408   2.033   1_554  S
Zn49         O52   1.960       .  S
Zn49         O54   2.006       .  S
Zn49         O56   2.005       .  S
Zn49         O60   2.024       .  S
Zn50         O52   1.961       .  S
Zn50         O55   2.013       .  S
Zn50         O58   2.012       .  S
Zn50         O61   2.030       .  S
Zn51         O52   1.938       .  S
Zn51         O59   2.004       .  S
Zn51         O62   2.004       .  S
Zn51        O407   1.981   1_554  S
O53          C65   1.273       .  A
O54          C66   1.273       .  A
O55          C67   1.272       .  A
O56          C65   1.271       .  A
O57          C67   1.273       .  A
O58          C66   1.274       .  A
O59          C68   1.270       .  A
O60          C69   1.271       .  A
O61          C68   1.272       .  A
O62          C69   1.270       .  A
O63        Zn395   1.981       .  S
O63          C70   1.271       .  A
O64        Zn392   2.033       .  S
O64          C70   1.274       .  A
C65         C341   1.434       .  S
C67         C322   1.436       .  S
C68         C324   1.436       .  S
C69         C329   1.434       .  S
C71          N72   1.360       .  A
C71          N76   1.357       .  A
C71         C320   1.437       .  S
N72          C73   1.360       .  A
C73          N74   1.357       .  A
C73         C321   1.436       .  S
N74          C75   1.356       .  A
C75          N76   1.356       .  A
C75          C81   1.469       .  S
C77          N78   1.359       .  A
C77          N82   1.356       .  A
C77         C317   1.434       .  S
N78          C79   1.359       .  A
C79          N80   1.357       .  A
C79         C326   1.435       .  S
N80          C81   1.357       .  A
C81          N82   1.356       .  A
Zn83         O87   1.963       .  S
Zn83         O88   2.011       .  S
Zn83         O92   2.027       .  S
Zn83         O99   2.013       .  S
Zn84         O87   1.979       .  S
Zn84         O89   2.031       .  S
Zn84         O91   2.029       .  S
Zn84         O95   2.026       .  S
Zn85         O87   1.943       .  S
Zn85         O90   2.004       .  S
Zn85         O93   1.993       .  S
Zn85         O96   2.003       .  S
Zn86         O87   1.964       .  S
Zn86         O94   2.025       .  S
Zn86         O97   2.013       .  S
Zn86         O98   2.012       .  S
O88         C100   1.272       .  A
O89         C101   1.273       .  A
O90         C102   1.270       .  A
O91         C100   1.273       .  A
O92         C102   1.272       .  A
O93         C101   1.270       .  A
O94         C103   1.272       .  A
O95         C104   1.273       .  A
O96         C103   1.270       .  A
O97         C104   1.272       .  A
O98         C105   1.272       .  A
O99         C105   1.272       .  A
C100        C336   1.436       .  S
C101        C126   1.456       .  S
C102        C313   1.435       .  S
C103        C318   1.434       .  S
C104        C315   1.436       .  S
C105        C123   1.456       .  S
Zn106       O110   1.979       .  S
Zn106       O115   2.028       .  S
Zn106       O122   2.028       .  S
Zn106       O455   2.032       .  S
Zn107       O110   1.943       .  S
Zn107       O112   2.003       .  S
Zn107       O118   2.003       .  S
Zn107       O458   1.993   1_554  S
Zn108       O110   1.964       .  S
Zn108       O113   2.015       .  S
Zn108       O116   2.029       .  S
Zn108       O119   2.016       .  S
Zn109       O110   1.962       .  S
Zn109       O117   2.009       .  S
Zn109       O120   2.024       .  S
Zn109       O121   2.007       .  S
O111       Zn450   2.032       .  S
O111        C123   1.273       .  A
O112        C124   1.270       .  A
O113        C125   1.272       .  A
O114       Zn451   1.993       .  S
O114        C123   1.270       .  A
O115        C125   1.273       .  A
O116        C124   1.272       .  A
O117        C126   1.272       .  A
O118        C127   1.270       .  A
O119        C126   1.272       .  A
O120        C127   1.271       .  A
O121        C128   1.271       .  A
O122        C128   1.273       .  A
C124        C311   1.435       .  S
C125        C319   1.437       .  S
C127        C331   1.434       .  S
C128        C310   1.435       .  S
C129        N130   1.357       .  A
C129        N134   1.359       .  A
C129        C307   1.435       .  S
N130        C131   1.356       .  A
C131        N132   1.356       .  A
C131        C139   1.469       .  S
N132        C133   1.357       .  A
C133        N134   1.359       .  A
C133        C309   1.435       .  S
C135        N136   1.360       .  A
C135        N140   1.357       .  A
C135        C305   1.435       .  S
N136        C137   1.359       .  A
C137        N138   1.356       .  A
C137        C314   1.435       .  S
N138        C139   1.356       .  A
C139        N140   1.356       .  A
C141        N142   1.360       .  A
C141        N146   1.357       .  A
C141        C316   1.436       .  S
N142        C143   1.360   1_565  A
C143        N144   1.357       .  A
C143        C304   1.435       .  S
N144        C145   1.356   1_545  A
C145        N146   1.356       .  A
C145        C149   1.469       .  S
C147        N148   1.356       .  A
C147        N152   1.360       .  A
C147        C312   1.435       .  S
N148        C493   1.356   1_554  A
C149        N492   1.356       .  A
C149        N494   1.356   1_565  A
N150        C151   1.357   1_556  A
N150        C493   1.356   1_545  A
C151        N152   1.360   1_545  A
C151        C301   1.436       .  S
Zn153       O157   1.944       .  S
Zn153       O158   1.994       .  S
Zn153       O162   2.004       .  S
Zn153       O169   2.004       .  S
Zn154       O157   1.978       .  S
Zn154       O159   2.026       .  S
Zn154       O161   2.030       .  S
Zn154       O165   2.026       .  S
Zn155       O157   1.962       .  S
Zn155       O160   2.021       .  S
Zn155       O163   2.009       .  S
Zn155       O166   2.009       .  S
Zn156       O157   1.964       .  S
Zn156       O164   2.017       .  S
Zn156       O167   2.017       .  S
Zn156       O168   2.029       .  S
O158        C170   1.270       .  A
O159        C171   1.273       .  A
O160        C172   1.271       .  A
O161        C170   1.273       .  A
O162        C172   1.270       .  A
O163        C171   1.271       .  A
O164        C173   1.273       .  A
O165        C174   1.273       .  A
O166        C173   1.272       .  A
O167        C174   1.272       .  A
O168        C175   1.273       .  A
O169        C175   1.270       .  A
C170        C198   1.456       .  S
C171        C306   1.435       .  S
C172        C299   1.433       .  S
C173        C194   1.456       .  S
C174        C297   1.437       .  S
C175        C303   1.435       .  S
Zn176       O180   1.963       .  S
Zn176       O181   2.024       .  S
Zn176       O185   2.009       .  S
Zn176       O536   2.009   1_554  S
Zn177       O180   1.942       .  S
Zn177       O182   1.989       .  S
Zn177       O184   1.999       .  S
Zn177       O188   2.000       .  S
Zn178       O180   1.979       .  S
Zn178       O183   2.029       .  S
Zn178       O186   2.034       .  S
Zn178       O189   2.031       .  S
Zn179       O180   1.964       .  S
Zn179       O187   2.014       .  S
Zn179       O190   2.030       .  S
Zn179       O535   2.016   1_554  S
O181        C193   1.271       .  A
O182        C194   1.269       .  A
O183        C195   1.273       .  A
O184        C193   1.269       .  A
O185        C195   1.271       .  A
O186        C194   1.274       .  A
O187        C196   1.272       .  A
O188        C197   1.270       .  A
O189        C196   1.274       .  A
O190        C197   1.272       .  A
O191       Zn523   2.016       .  S
O191        C198   1.273       .  A
O192       Zn520   2.009       .  S
O192        C198   1.272       .  A
C193        C294   1.433       .  S
C195        C302   1.435       .  S
C196        C295   1.437       .  S
C197        C308   1.434       .  S
C199        N200   1.358       .  A
C199        N204   1.357       .  A
C199        C291   1.433       .  S
N200        C201   1.358       .  A
C201        N202   1.357       .  A
C201        C293   1.433       .  S
N202        C203   1.356       .  A
C203        N204   1.356       .  A
C203        C209   1.469       .  S
C205        N206   1.361       .  A
C205        N210   1.356       .  A
C205        C298   1.437       .  S
N206        C207   1.361       .  A
C207        N208   1.357       .  A
C207        C289   1.437       .  S
N208        C209   1.356       .  A
C209        N210   1.356       .  A
C211        N212   1.356       .  A
C211        N216   1.359       .  A
C211        C287   1.435       .  S
N212        C213   1.356       .  A
C213        N214   1.357   1_545  A
C213        C221   1.469       .  S
N214        C215   1.357       .  A
C215        N216   1.359   1_565  A
C215        C328   1.435       .  S
C217        N218   1.360   1_565  A
C217        N222   1.357       .  A
C217        C323   1.436       .  S
N218        C219   1.360       .  A
C219        N220   1.356       .  A
C219        C286   1.436       .  S
N220        C565   1.356   1_554  A
C221        N564   1.356       .  A
C221        N566   1.356   1_545  A
N222        C565   1.356   1_564  A
C223        N224   1.359       .  A
C223        N228   1.357       .  A
C223        C283   1.434       .  S
N224        C225   1.359   1_455  A
C225        N226   1.356       .  A
C225        C300   1.434       .  S
N226        C227   1.356   1_655  A
C227        N228   1.356       .  A
C227        C233   1.469       .  S
C229        N230   1.361       .  A
C229        N234   1.357   1_554  A
C229        C282   1.437       .  S
N230        C231   1.361   1_455  A
C231        N232   1.356   1_554  A
C231        C296   1.437       .  S
N232        C577   1.356   1_655  A
C233        N576   1.356   1_455  A
C233        N578   1.356       .  A
N234        C577   1.356       .  A
Zn235       O239   1.964       .  S
Zn235       O240   2.015       .  S
Zn235       O244   2.027       .  S
Zn235       O251   2.013       .  S
Zn236       O239   1.963       .  S
Zn236       O241   2.026       .  S
Zn236       O243   2.011       .  S
Zn236       O247   2.011       .  S
Zn237       O239   1.943       .  S
Zn237       O242   2.002       .  S
Zn237       O245   1.999       .  S
Zn237       O248   1.989       .  S
Zn238       O239   1.980       .  S
Zn238       O246   2.035       .  S
Zn238       O249   2.031       .  S
Zn238       O250   2.032       .  S
O240        C252   1.272       .  A
O241        C253   1.272       .  A
O242        C254   1.270       .  A
O243        C252   1.272       .  A
O244        C254   1.272       .  A
O245        C253   1.269       .  A
O246        C255   1.274       .  A
O247        C256   1.272       .  A
O248        C255   1.269       .  A
O249        C256   1.273       .  A
O250        C257   1.274       .  A
O251        C257   1.272       .  A
C252        C277   1.456       .  S
C253        C284   1.433       .  S
C254        C288   1.434       .  S
C255        C279   1.456       .  S
C256        C337   1.436       .  S
C257        C290   1.437       .  S
Zn258       O262   1.979       .  S
Zn258       O263   2.030       .  S
Zn258       O267   2.033       .  S
Zn258       O274   2.029       .  S
Zn259       O262   1.964       .  S
Zn259       O264   2.028       .  S
Zn259       O266   2.015       .  S
Zn259       O614   2.016   1_554  S
Zn260       O262   1.943       .  S
Zn260       O265   1.990       .  S
Zn260       O268   2.000       .  S
Zn260       O271   2.000       .  S
Zn261       O262   1.962       .  S
Zn261       O269   2.021       .  S
Zn261       O273   2.010       .  S
Zn261       O616   2.009   1_554  S
O263        C275   1.273       .  A
O264        C276   1.272       .  A
O265        C277   1.269       .  A
O266        C275   1.272       .  A
O267        C277   1.274       .  A
O268        C276   1.270       .  A
O269        C278   1.271       .  A
O270       Zn603   2.016       .  S
O270        C279   1.272       .  A
O271        C278   1.269       .  A
O272       Zn605   2.009       .  S
O272        C279   1.272       .  A
O273        C280   1.271       .  A
O274        C280   1.273       .  A
C275        C281   1.437       .  S
C276        C343   1.434       .  S
C278        C292   1.432       .  S
C280        C285   1.436       .  S
C281        C282   1.207       .  T
C283        C284   1.205       .  T
C285        C286   1.206       .  T
C287        C288   1.205       .  T
C289        C290   1.207       .  T
C291        C292   1.204       .  T
C293        C294   1.204       .  T
C295        C296   1.207       .  T
C297        C298   1.207       .  T
C299        C300   1.205       .  T
C301        C302   1.206       .  T
C303        C304   1.206       .  T
C305        C306   1.206       .  T
C307        C308   1.205       .  T
C309        C310   1.206       .  T
C311        C312   1.206       .  T
C313        C314   1.206       .  T
C315        C316   1.206       .  T
C317        C318   1.205       .  T
C319        C320   1.207       .  T
C321        C322   1.206       .  T
C323        C324   1.206       .  T
C325        C326   1.205       .  T
C327        C328   1.206       .  T
C329        C330   1.205       .  T
C331        C332   1.205       .  T
C333        C334   1.206       .  T
C335        C336   1.206       .  T
C337        C338   1.207       .  T
C339        C340   1.206       .  T
C341        C342   1.205       .  T
C343        C344   1.205       .  T
C345        N346   1.357       .  A
C345        N350   1.359       .  A
C345        C688   1.434       .  S
N346        C347   1.356       .  A
C347        N348   1.356       .  A
C347        C353   1.469       .  S
N348        C349   1.357       .  A
C349        N350   1.359       .  A
C349        C686   1.434       .  S
C351        N352   1.357       .  A
C351        N356   1.360       .  A
C351        C683   1.436       .  S
N352        C353   1.356       .  A
C353        N354   1.356       .  A
N354        C355   1.357       .  A
C355        N356   1.360       .  A
C355        C682   1.437       .  S
C357        N358   1.357       .  A
C357        N362   1.360   1_455  A
C357        C677   1.436       .  S
N358        C359   1.356   1_455  A
C359        N360   1.356       .  A
C359        C365   1.469       .  S
N360        C361   1.357       .  A
C361        N362   1.360       .  A
C361        C679   1.436       .  S
C363        N364   1.357       .  A
C363        N368   1.359       .  A
C363        C674   1.435       .  S
N366        C367   1.356       .  A
C367        N368   1.359   1_655  A
C367        C676   1.434       .  S
Zn369       O373   1.961       .  S
Zn369       O374   2.026       .  S
Zn369       O378   2.007       .  S
Zn369       O385   2.008       .  S
Zn370       O373   1.939       .  S
Zn370       O375   2.005       .  S
Zn370       O377   2.004       .  S
Zn370       O381   1.982       .  S
Zn371       O373   1.961       .  S
Zn371       O376   2.011       .  S
Zn371       O379   2.030       .  S
Zn371       O382   2.013       .  S
Zn372       O373   1.981       .  S
Zn372       O380   2.027       .  S
Zn372       O383   2.033       .  S
Zn372       O384   2.026       .  S
O374        C386   1.272       .  A
O375        C387   1.270       .  A
O376        C388   1.273       .  A
O377        C386   1.270       .  A
O378        C388   1.273       .  A
O379        C387   1.272       .  A
O380        C389   1.273       .  A
O381        C390   1.271       .  A
O382        C389   1.272       .  A
O383        C390   1.274       .  A
O384        C391   1.273       .  A
O385        C391   1.271       .  A
C386        C671   1.435       .  S
C387        C678   1.436       .  S
C388        C410   1.464       .  S
C389        C684   1.436       .  S
C390        C414   1.464       .  S
C391        C669   1.435       .  S
Zn392       O396   1.981       .  S
Zn392       O397   2.027       .  S
Zn392       O401   2.028       .  S
Zn393       O396   1.960       .  S
Zn393       O398   2.006       .  S
Zn393       O400   2.005       .  S
Zn393       O404   2.024       .  S
Zn394       O396   1.961       .  S
Zn394       O399   2.013       .  S
Zn394       O402   2.012       .  S
Zn394       O405   2.030       .  S
Zn395       O396   1.938       .  S
Zn395       O403   2.004       .  S
Zn395       O406   2.004       .  S
O397        C409   1.273       .  A
O398        C410   1.273       .  A
O399        C411   1.272       .  A
O400        C409   1.271       .  A
O401        C411   1.273       .  A
O402        C410   1.274       .  A
O403        C412   1.270       .  A
O404        C413   1.271       .  A
O405        C412   1.272       .  A
O406        C413   1.270       .  A
O407        C414   1.271       .  A
O408        C414   1.274       .  A
C409        C685   1.434       .  S
C411        C666   1.436       .  S
C412        C668   1.436       .  S
C413        C673   1.434       .  S
C415        N416   1.360       .  A
C415        N420   1.357       .  A
C415        C664   1.437       .  S
N416        C417   1.360       .  A
C417        N418   1.357       .  A
C417        C665   1.436       .  S
N418        C419   1.356       .  A
C419        N420   1.356       .  A
C419        C425   1.469       .  S
C421        N422   1.359       .  A
C421        N426   1.356       .  A
C421        C661   1.434       .  S
N422        C423   1.359       .  A
C423        N424   1.357       .  A
C423        C670   1.435       .  S
N424        C425   1.357       .  A
C425        N426   1.356       .  A
Zn427       O431   1.963       .  S
Zn427       O432   2.011       .  S
Zn427       O436   2.027       .  S
Zn427       O443   2.013       .  S
Zn428       O431   1.979       .  S
Zn428       O433   2.031       .  S
Zn428       O435   2.029       .  S
Zn428       O439   2.026       .  S
Zn429       O431   1.943       .  S
Zn429       O434   2.004       .  S
Zn429       O437   1.993       .  S
Zn429       O440   2.003       .  S
Zn430       O431   1.964       .  S
Zn430       O438   2.025       .  S
Zn430       O441   2.012       .  S
Zn430       O442   2.012       .  S
O432        C444   1.272       .  A
O433        C445   1.273       .  A
O434        C446   1.270       .  A
O435        C444   1.273       .  A
O436        C446   1.272       .  A
O437        C445   1.270       .  A
O438        C447   1.272       .  A
O439        C448   1.273       .  A
O440        C447   1.270       .  A
O441        C448   1.272       .  A
O442        C449   1.272       .  A
O443        C449   1.272       .  A
C444        C680   1.436       .  S
C445        C470   1.456       .  S
C446        C657   1.435       .  S
C447        C662   1.434       .  S
C448        C659   1.436       .  S
C449        C467   1.456       .  S
Zn450       O454   1.979       .  S
Zn450       O459   2.028       .  S
Zn450       O466   2.028       .  S
Zn451       O454   1.943       .  S
Zn451       O456   2.003       .  S
Zn451       O462   2.003       .  S
Zn452       O454   1.964       .  S
Zn452       O457   2.015       .  S
Zn452       O460   2.029       .  S
Zn452       O463   2.016       .  S
Zn453       O454   1.962       .  S
Zn453       O461   2.009       .  S
Zn453       O464   2.024       .  S
Zn453       O465   2.007       .  S
O455        C467   1.273   1_554  A
O456        C468   1.270       .  A
O457        C469   1.272       .  A
O458        C467   1.270       .  A
O459        C469   1.273       .  A
O460        C468   1.272       .  A
O461        C470   1.272       .  A
O462        C471   1.270       .  A
O463        C470   1.272       .  A
O464        C471   1.271       .  A
O465        C472   1.271       .  A
O466        C472   1.273       .  A
C468        C655   1.435       .  S
C469        C663   1.437       .  S
C471        C675   1.434       .  S
C472        C654   1.435       .  S
C473        N474   1.357       .  A
C473        N478   1.359       .  A
C473        C651   1.435       .  S
N474        C475   1.356       .  A
C475        N476   1.356       .  A
C475        C483   1.469       .  S
N476        C477   1.357       .  A
C477        N478   1.359       .  A
C477        C653   1.435       .  S
C479        N480   1.360       .  A
C479        N484   1.357       .  A
C479        C649   1.435       .  S
N480        C481   1.359       .  A
C481        N482   1.356       .  A
C481        C658   1.435       .  S
N482        C483   1.356       .  A
C483        N484   1.356       .  A
C485        N486   1.360       .  A
C485        N490   1.357       .  A
C485        C660   1.436       .  S
N486        C487   1.360   1_565  A
C487        N488   1.357       .  A
C487        C648   1.435       .  S
N488        C489   1.356   1_545  A
C489        N490   1.356       .  A
C489        C493   1.469       .  S
C491        N492   1.356       .  A
C491        N496   1.360       .  A
C491        C656   1.435       .  S
N494        C495   1.357       .  A
C495        N496   1.360   1_545  A
C495        C645   1.436       .  S
Zn497       O501   1.944       .  S
Zn497       O502   1.994       .  S
Zn497       O506   2.004       .  S
Zn497       O513   2.004       .  S
Zn498       O501   1.978       .  S
Zn498       O503   2.026       .  S
Zn498       O505   2.030       .  S
Zn498       O509   2.026       .  S
Zn499       O501   1.962       .  S
Zn499       O504   2.021       .  S
Zn499       O507   2.009       .  S
Zn499       O510   2.009       .  S
Zn500       O501   1.964       .  S
Zn500       O508   2.017       .  S
Zn500       O511   2.017       .  S
Zn500       O512   2.029       .  S
O502        C514   1.270       .  A
O503        C515   1.273       .  A
O504        C516   1.271       .  A
O505        C514   1.273       .  A
O506        C516   1.270       .  A
O507        C515   1.271       .  A
O508        C517   1.273       .  A
O509        C518   1.273       .  A
O510        C517   1.271       .  A
O511        C518   1.272       .  A
O512        C519   1.272       .  A
O513        C519   1.270       .  A
C514        C542   1.456       .  S
C515        C650   1.435       .  S
C516        C643   1.433       .  S
C517        C538   1.456       .  S
C518        C641   1.437       .  S
C519        C647   1.435       .  S
Zn520       O524   1.963       .  S
Zn520       O525   2.024       .  S
Zn520       O529   2.009       .  S
Zn521       O524   1.942       .  S
Zn521       O526   1.989       .  S
Zn521       O528   1.999       .  S
Zn521       O532   2.000       .  S
Zn522       O524   1.979       .  S
Zn522       O527   2.029       .  S
Zn522       O530   2.034       .  S
Zn522       O533   2.031       .  S
Zn523       O524   1.964       .  S
Zn523       O531   2.014       .  S
Zn523       O534   2.030       .  S
O525        C537   1.271       .  A
O526        C538   1.269       .  A
O527        C539   1.273       .  A
O528        C537   1.269       .  A
O529        C539   1.271       .  A
O530        C538   1.274       .  A
O531        C540   1.272       .  A
O532        C541   1.270       .  A
O533        C540   1.274       .  A
O534        C541   1.272       .  A
O535        C542   1.273       .  A
O536        C542   1.272       .  A
C537        C638   1.433       .  S
C539        C646   1.435       .  S
C540        C639   1.437       .  S
C541        C652   1.434       .  S
C543        N544   1.358       .  A
C543        N548   1.357       .  A
C543        C635   1.433       .  S
N544        C545   1.358       .  A
C545        N546   1.357       .  A
C545        C637   1.433       .  S
N546        C547   1.356       .  A
C547        N548   1.356       .  A
C547        C553   1.469       .  S
C549        N550   1.361       .  A
C549        N554   1.356       .  A
C549        C642   1.437       .  S
N550        C551   1.361       .  A
C551        N552   1.357       .  A
C551        C633   1.437       .  S
N552        C553   1.356       .  A
C553        N554   1.356       .  A
C555        N556   1.356       .  A
C555        N560   1.359       .  A
C555        C631   1.435       .  S
N556        C557   1.356       .  A
C557        N558   1.357   1_545  A
C557        C565   1.469       .  S
N558        C559   1.357       .  A
C559        N560   1.359   1_565  A
C559        C672   1.435       .  S
C561        N562   1.360   1_565  A
C561        N566   1.357       .  A
C561        C667   1.436       .  S
N562        C563   1.360       .  A
C563        N564   1.356       .  A
C563        C630   1.436       .  S
C567        N568   1.359       .  A
C567        N572   1.357       .  A
C567        C627   1.434       .  S
N568        C569   1.359   1_455  A
C569        N570   1.356       .  A
C569        C644   1.434       .  S
N570        C571   1.356   1_655  A
C571        N572   1.356       .  A
C571        C577   1.469       .  S
C573        N574   1.361       .  A
C573        N578   1.357       .  A
C573        C626   1.437       .  S
N574        C575   1.361   1_455  A
C575        N576   1.356       .  A
C575        C640   1.437       .  S
Zn579       O583   1.964       .  S
Zn579       O584   2.015       .  S
Zn579       O588   2.027       .  S
Zn579       O595   2.013       .  S
Zn580       O583   1.963       .  S
Zn580       O585   2.026       .  S
Zn580       O587   2.011       .  S
Zn580       O591   2.011       .  S
Zn581       O583   1.943       .  S
Zn581       O586   2.002       .  S
Zn581       O589   1.999       .  S
Zn581       O592   1.989       .  S
Zn582       O583   1.980       .  S
Zn582       O590   2.035       .  S
Zn582       O593   2.031       .  S
Zn582       O594   2.032       .  S
O584        C596   1.272       .  A
O585        C597   1.272       .  A
O586        C598   1.270       .  A
O587        C596   1.272       .  A
O588        C598   1.272       .  A
O589        C597   1.269       .  A
O590        C599   1.274       .  A
O591        C600   1.272       .  A
O592        C599   1.269       .  A
O593        C600   1.273       .  A
O594        C601   1.274       .  A
O595        C601   1.272       .  A
C596        C621   1.456       .  S
C597        C628   1.433       .  S
C598        C632   1.434       .  S
C599        C623   1.456       .  S
C600        C681   1.436       .  S
C601        C634   1.437       .  S
Zn602       O606   1.979       .  S
Zn602       O607   2.030       .  S
Zn602       O611   2.033       .  S
Zn602       O618   2.029       .  S
Zn603       O606   1.964       .  S
Zn603       O608   2.028       .  S
Zn603       O610   2.015       .  S
Zn604       O606   1.943       .  S
Zn604       O609   1.990       .  S
Zn604       O612   2.000       .  S
Zn604       O615   2.000       .  S
Zn605       O606   1.962       .  S
Zn605       O613   2.021       .  S
Zn605       O617   2.010       .  S
O607        C619   1.273       .  A
O608        C620   1.272       .  A
O609        C621   1.269       .  A
O610        C619   1.272       .  A
O611        C621   1.274       .  A
O612        C620   1.270       .  A
O613        C622   1.271       .  A
O614        C623   1.272       .  A
O615        C622   1.269       .  A
O616        C623   1.272       .  A
O617        C624   1.271       .  A
O618        C624   1.273       .  A
C619        C625   1.437       .  S
C620        C687   1.434       .  S
C622        C636   1.432       .  S
C624        C629   1.436       .  S
C625        C626   1.207       .  T
C627        C628   1.205       .  T
C629        C630   1.206       .  T
C631        C632   1.205       .  T
C633        C634   1.207       .  T
C635        C636   1.204       .  T
C637        C638   1.204       .  T
C639        C640   1.207       .  T
C641        C642   1.207       .  T
C643        C644   1.205       .  T
C645        C646   1.206       .  T
C647        C648   1.206       .  T
C649        C650   1.206       .  T
C651        C652   1.205       .  T
C653        C654   1.206       .  T
C655        C656   1.206       .  T
C657        C658   1.206       .  T
C659        C660   1.206       .  T
C661        C662   1.205       .  T
C663        C664   1.207       .  T
C665        C666   1.206       .  T
C667        C668   1.206       .  T
C669        C670   1.205       .  T
C671        C672   1.206       .  T
C673        C674   1.205       .  T
C675        C676   1.205       .  T
C677        C678   1.206       .  T
C679        C680   1.206       .  T
C681        C682   1.207       .  T
C683        C684   1.206       .  T
C685        C686   1.205       .  T
C687        C688   1.205       .  T
