geometry optimzed in LAMMPS
_audit_creation_date              2020-12-01 
_audit_creation_method            'lammps2cif' 
_symmetry_space_group_name_H-M    'P1' 
_symmetry_Int_Tables_number       1 
_symmetry_cell_setting            triclinic 
loop_ 
_symmetry_equiv_pos_as_xyz 
  x,y,z 
_cell_length_a                    46.08475684 
_cell_length_b                    44.625502867092905 
_cell_length_c                    29.838159749237548 
_cell_angle_alpha                 90.04632215994117 
_cell_angle_beta                  111.82782823342869 
_cell_angle_gamma                 88.76042878198396 
loop_ 
_atom_site_label 
_atom_site_type_symbol 
_atom_site_fract_x 
_atom_site_fract_y 
_atom_site_fract_z 
_atom_site_charge 
In1        In  0.27070416  0.25213920  0.18067477     1.36900
C2          C  0.23067518  0.20945816  0.17670938     0.79400
O3          O  0.24891998  0.26923550  0.23211067    -0.59100
O4          O  0.26330972  0.30123415  0.19241158    -0.50000
C5          C  0.33151098  0.24371814  0.23420028     0.72100
O6          O  0.31297580  0.22255428  0.21815210    -0.44800
C7          C  0.26420063  0.25558855  0.08804409     0.76800
O8          O  0.25737190  0.21034376  0.20977555    -0.56700
O9          O  0.25245557  0.27482422  0.10763114    -0.46800
O10         O  0.22434762  0.23032826  0.14597036    -0.53100
C11         C  0.25073976  0.29643977  0.22261494     0.86900
O12         O  0.31914315  0.26944235  0.22249278    -0.55000
O13         O  0.28059759  0.23552013  0.11633561    -0.58300
In14       In  0.22039475  0.27141509  0.85830660     1.36900
C15         C  0.25791454  0.22618865  0.85538904     0.79400
O16         O  0.22011320  0.29422715  0.79076553    -0.59100
O17         O  0.24660302  0.31343794  0.85826723    -0.50000
C18         C  0.15839563  0.26860261  0.81311924     0.72100
O19         O  0.17717435  0.25096912  0.80401603    -0.44800
C20         C  0.23251218  0.27456837  0.95295989     0.76800
O21         O  0.22947217  0.22247432  0.84831045    -0.56700
O22         O  0.22297288  0.29688177  0.92510109    -0.46800
O23         O  0.26695720  0.25278110  0.86347109    -0.53100
C24         C  0.23822655  0.31456314  0.81306874     0.86900
O25         O  0.17122786  0.28702482  0.84616094    -0.55000
O26         O  0.23475910  0.25053821  0.93224335    -0.58300
C27         C  0.35724101  0.38930410  0.67584427     0.88300
C28         C  0.33250871  0.38694315  0.62463192    -0.51900
C29         C  0.30499131  0.40138352  0.61901546     0.11200
C30         C  0.30462870  0.41684030  0.66482964     0.22200
C31         C  0.36065914  0.42300164  0.68586433    -0.52700
C32         C  0.33302050  0.43741209  0.67993875     0.11300
C33         C  0.34148747  0.37734405  0.70907795    -0.52200
C34         C  0.31385782  0.39169270  0.70312016     0.11900
H35         H  0.33632270  0.37484210  0.59561617     0.16400
H36         H  0.28210515  0.42854834  0.65994201     0.02100
H37         H  0.38265150  0.43451865  0.69537376     0.16700
H38         H  0.35075620  0.35856177  0.73380125     0.16500
C39         C  0.34964451  0.63396162  0.65155263     0.88300
C40         C  0.35540611  0.60088488  0.66702474    -0.51900
C41         C  0.32882240  0.58662070  0.66401624     0.11200
C42         C  0.29910143  0.60664336  0.64609711     0.22200
C43         C  0.32448407  0.63378703  0.60040152    -0.52700
C44         C  0.29804035  0.61948212  0.59777120     0.11300
C45         C  0.33335595  0.64792661  0.68318591    -0.52200
C46         C  0.30688615  0.63360392  0.68020625     0.11900
H47         H  0.37818809  0.58967676  0.67839783     0.16400
H48         H  0.27745652  0.59505008  0.64365193     0.02100
H49         H  0.32714401  0.64432444  0.56938328     0.16700
H50         H  0.34159215  0.66772050  0.70508437     0.16500
In51       In  0.25398029  0.73841554  0.14760004     1.36900
C52         C  0.21850317  0.78370720  0.15688583     0.79400
O53         O  0.24028424  0.76092965  0.07502470    -0.59100
O54         O  0.25146405  0.71448119  0.07968056    -0.50000
C55         C  0.31615385  0.74001985  0.19045022     0.72100
O56         O  0.29813510  0.75947065  0.19754046    -0.44800
C57         C  0.23458918  0.69596182  0.19196238     0.76800
O58         O  0.24725849  0.78652597  0.16543291    -0.56700
O59         O  0.22549827  0.69775741  0.14669772    -0.46800
O60         O  0.20793216  0.75811188  0.14301624    -0.53100
C61         C  0.24288488  0.73748299  0.05323380     0.86900
O62         O  0.30244095  0.71994797  0.16098201    -0.55000
O63         O  0.25454830  0.71484131  0.21455609    -0.58300
In64       In  0.21203409  0.76083238  0.82794386     1.36900
C65         C  0.25272931  0.80245694  0.83019520     0.79400
O66         O  0.20493512  0.78143877  0.89230394    -0.59100
O67         O  0.22771125  0.73892998  0.90094934    -0.50000
C68         C  0.15123233  0.76569431  0.77379918     0.72100
O69         O  0.17001243  0.78649309  0.77811250    -0.44800
C70         C  0.23088008  0.71603762  0.78602268     0.76800
O71         O  0.22383566  0.80593720  0.80690668    -0.56700
O72         O  0.22498729  0.71230763  0.82353591    -0.46800
O73         O  0.26089853  0.77791416  0.85260457    -0.53100
C74         C  0.21836683  0.76008358  0.92041916     0.86900
O75         O  0.16332513  0.74242805  0.79804674    -0.55000
O76         O  0.22633551  0.74230312  0.76914327    -0.58300
C77         C  0.13212267  0.38230547  0.35223570     0.88300
C78         C  0.15675835  0.38188791  0.40381289    -0.51900
C79         C  0.18336927  0.39641109  0.40791560     0.11200
C80         C  0.18300624  0.40996031  0.36036734     0.22200
C81         C  0.12651099  0.41551748  0.33801850    -0.52700
C82         C  0.15321310  0.43002537  0.34250036     0.11300
C83         C  0.14892933  0.36899392  0.32093485    -0.52200
C84         C  0.17564364  0.38333212  0.32533828     0.11900
H85         H  0.15351278  0.37107205  0.43416750     0.16400
H86         H  0.20477277  0.42173242  0.36400697     0.02100
H87         H  0.10374112  0.42673806  0.32693631     0.16700
H88         H  0.14101188  0.34931999  0.29858209     0.16500
C89         C  0.11689521  0.62686717  0.34033787     0.88300
C90         C  0.11430931  0.59304766  0.33084606    -0.51900
C91         C  0.14213112  0.57944408  0.33557631     0.11200
C92         C  0.16977176  0.60077341  0.34904250     0.22200
C93         C  0.14234946  0.62986561  0.39087698    -0.52700
C94         C  0.17000727  0.61613750  0.39519426     0.11300
C95         C  0.13135891  0.63929876  0.30565135    -0.52200
C96         C  0.15910773  0.62562633  0.31038888     0.11900
H97         H  0.09274113  0.58092285  0.32227424     0.16400
H98         H  0.19240887  0.58965524  0.35290391     0.02100
H99         H  0.13889121  0.64179613  0.42031480     0.16700
H100        H  0.12100945  0.65766857  0.28050971     0.16500
In101      In  0.47870198  0.24464860  0.36474633     1.36900
C102        C  0.01851639  0.28984800  0.34632333     0.79400
O103        O  0.49394749  0.26131616  0.44087942    -0.59100
O104        O  0.47291022  0.21899219  0.42647500    -0.50000
C105        C  0.41753657  0.25438685  0.31569534     0.72100
O106        O  0.43577833  0.27491920  0.33695089    -0.44800
C107        C  0.49888879  0.20162051  0.32103139     0.76800
O108        O  0.48725891  0.28994532  0.33984816    -0.56700
O109        O  0.50316838  0.20017634  0.36523097    -0.46800
O110        O  0.02831262  0.26800452  0.37509188    -0.53100
C111        C  0.48544517  0.23869954  0.45745721     0.86900
O112        O  0.43033280  0.22871268  0.32084720    -0.55000
O113        O  0.48415623  0.22466132  0.29928627    -0.58300
In114      In  0.01461195  0.25255876  0.67397304     1.36900
C115        C  0.47583132  0.29713377  0.68613776     0.79400
O116        O  0.01996725  0.27734856  0.61200534    -0.59100
O117        O  0.50049653  0.23270372  0.61096974    -0.50000
C118        C  0.07620856  0.25038303  0.72382729     0.72100
O119        O  0.05850792  0.27094812  0.72882782    -0.44800
C120        C  0.49572560  0.20987936  0.72780937     0.76800
O121        O  0.50504206  0.29958739  0.70568819    -0.56700
O122        O  0.49538973  0.20738729  0.68558672    -0.46800
O123        O  0.46684305  0.27246804  0.66581795    -0.53100
C124        C  0.00953213  0.25649540  0.58222969     0.86900
O125        O  0.06246624  0.23090989  0.69308247    -0.55000
O126        O  0.00780383  0.23130567  0.73733161    -0.58300
C127        C  0.37455913  0.13267331  0.86145081     0.88300
C128        C  0.36885937  0.10014515  0.84446247    -0.51900
C129        C  0.39539336  0.08512259  0.84632805     0.11200
C130        C  0.42506524  0.10390500  0.86481770     0.22200
C131        C  0.39995001  0.13074620  0.91234714    -0.52700
C132        C  0.42638827  0.11568604  0.91388832     0.11300
C133        C  0.39053200  0.14691097  0.83009655    -0.52200
C134        C  0.41704611  0.13183078  0.83205897     0.11900
H135        H  0.34613702  0.08980952  0.83289918     0.16400
H136        H  0.44668759  0.09164853  0.86638784     0.02100
H137        H  0.39748214  0.14077149  0.94396358     0.16700
H138        H  0.38213144  0.16743297  0.80930852     0.16500
C139        C  0.36977490  0.88988699  0.83621686     0.88300
C140        C  0.39521533  0.88830008  0.88704882    -0.51900
C141        C  0.42217292  0.90174037  0.89017152     0.11200
C142        C  0.42131717  0.91547197  0.84250654     0.22200
C143        C  0.36535289  0.92329897  0.82313882    -0.52700
C144        C  0.39244688  0.93670210  0.82669098     0.11300
C145        C  0.38499761  0.87603401  0.80313230    -0.52200
C146        C  0.41206660  0.88936478  0.80659761     0.11900
H147        H  0.39225266  0.87746340  0.91761792     0.16400
H148        H  0.44339510  0.92637590  0.84538926     0.02100
H149        H  0.34319092  0.93546860  0.81388964     0.16700
H150        H  0.37574758  0.85685572  0.78018137     0.16500
In151      In  0.46086054  0.75758178  0.32494513     1.36900
C152        C  0.99616112  0.71667774  0.32635009     0.79400
O153        O  0.47108177  0.77624366  0.26259202    -0.59100
O154        O  0.47746120  0.80456461  0.32257229    -0.50000
C155        C  0.39900614  0.75914035  0.27608541     0.72100
O156        O  0.41700095  0.73989689  0.26851067    -0.44800
C157        C  0.47123110  0.75475938  0.41927809     0.76800
O158        O  0.46991314  0.70986208  0.30794996    -0.56700
O159        O  0.47854422  0.77708137  0.40017771    -0.46800
O160        O  0.00399182  0.74367969  0.33005522    -0.53100
C161        C  0.47952544  0.80128050  0.28191494     0.86900
O162        O  0.41255724  0.77756379  0.30877414    -0.55000
O163        O  0.45800877  0.73438199  0.39007141    -0.58300
In164      In  0.00416692  0.75618341  0.65027126     1.36900
C165        C  0.46550326  0.72325011  0.65440753     0.79400
O166        O  0.99261551  0.77727592  0.71011373    -0.59100
O167        O  0.47996393  0.80891477  0.64832350    -0.50000
C168        C  0.06464079  0.74990842  0.70500793     0.72100
O169        O  0.04480676  0.73073624  0.70409596    -0.44800
C170        C  0.99760905  0.75335891  0.55753387     0.76800
O171        O  0.49465252  0.72081088  0.67697229    -0.56700
O172        O  0.49283227  0.74612340  0.57373020    -0.46800
O173        O  0.45642806  0.74661237  0.62894096    -0.53100
C174        C  0.48446878  0.80752855  0.69259556     0.86900
O175        O  0.05372437  0.77200303  0.67697738    -0.55000
O176        O  0.01319631  0.73412668  0.58844081    -0.58300
C177        C  0.11307605  0.12105245  0.16416613     0.88300
C178        C  0.11673085  0.08726198  0.17467578    -0.51900
C179        C  0.08964294  0.07443458  0.17264721     0.11200
C180        C  0.06157194  0.09643573  0.16039838     0.22200
C181        C  0.08635215  0.12438198  0.11471100    -0.52700
C182        C  0.05939948  0.11142021  0.11287051     0.11300
C183        C  0.09989551  0.13417067  0.20029134    -0.52200
C184        C  0.07288987  0.12130920  0.19815502     0.11900
H185        H  0.13847089  0.07462040  0.18223926     0.16400
H186        H  0.03952194  0.08596950  0.15871315     0.02100
H187        H  0.08850090  0.13596618  0.08412138     0.16700
H188        H  0.11043063  0.15255309  0.22435188     0.16500
C189        C  0.10396391  0.87720504  0.15830112     0.88300
C190        C  0.08000108  0.87799556  0.10620704    -0.51900
C191        C  0.05310922  0.89349877  0.10113595     0.11200
C192        C  0.05263853  0.90686523  0.14836978     0.22200
C193        C  0.10926904  0.91010013  0.17312712    -0.52700
C194        C  0.08235808  0.92562573  0.16781676     0.11300
C195        C  0.08641239  0.86433104  0.18840846    -0.52200
C196        C  0.05945781  0.87984729  0.18302925     0.11900
H197        H  0.08378645  0.86701971  0.07626394     0.16400
H198        H  0.03069991  0.91952231  0.14400618     0.02100
H199        H  0.13205442  0.92035553  0.18552113     0.16700
H200        H  0.09411927  0.84434625  0.21084155     0.16500
C201        C  0.08204494  0.95745601  0.17589521    -0.16700
C202        C  0.08310940  0.98433699  0.17981836     0.07400
C203        C  0.08522777  0.01585865  0.18081458     0.09200
C204        C  0.08726636  0.04265761  0.17861794    -0.17600
C205        C  0.49213587  0.82367607  0.26010656    -0.16700
C206        C  0.00303596  0.84279028  0.24330402     0.07400
C207        C  0.02127391  0.85869298  0.22266854     0.09200
C208        C  0.03819483  0.86978526  0.20493465    -0.17600
C209        C  0.49109356  0.77368742  0.50330188    -0.14600
C210        C  0.47766777  0.75198449  0.47146940    -0.29800
H211        H  0.00166409  0.73067239  0.49434868     0.14400
H212        H  0.47104231  0.73134238  0.48399257     0.15000
C213        C  0.44919147  0.90247255  0.93442861    -0.16700
C214        C  0.47171076  0.90229770  0.97162016     0.07400
C215        C  0.00533216  0.89721084  0.01722108     0.09200
C216        C  0.02704340  0.89598937  0.05552710    -0.17600
C217        C  0.43131453  0.87759622  0.78178797    -0.16700
C218        C  0.44587203  0.86471800  0.76106337     0.07400
C219        C  0.46100704  0.84688994  0.73678337     0.09200
C220        C  0.47244230  0.82981413  0.71627826    -0.17600
C221        C  0.03132035  0.11200681  0.06992178    -0.16700
C222        C  0.00806308  0.11271316  0.03366932     0.07400
C223        C  0.47718946  0.11113948  0.99337657     0.09200
C224        C  0.45383866  0.11265601  0.95740522    -0.17600
C225        C  0.39565481  0.05376408  0.83490407    -0.16700
C226        C  0.39554726  0.02715629  0.82789304     0.07400
C227        C  0.39506603  0.99568417  0.82309082     0.09200
C228        C  0.39422476  0.96870778  0.82249456    -0.17600
C229        C  0.43695054  0.14294531  0.80852207    -0.16700
C230        C  0.45289439  0.15470206  0.78970105     0.07400
C231        C  0.47008337  0.17128806  0.76811562     0.09200
C232        C  0.48298306  0.18774374  0.74975716    -0.17600
C233        C  0.01506138  0.18103501  0.29145605    -0.16700
C234        C  0.02668044  0.16352431  0.27192140     0.07400
C235        C  0.04155010  0.14540645  0.24773682     0.09200
C236        C  0.05531747  0.13262786  0.22578854    -0.17600
C237        C  0.48990530  0.23555030  0.50887113    -0.14600
C238        C  0.50400279  0.25688795  0.54097020    -0.29800
H239        H  0.48151013  0.21554509  0.52043100     0.14400
H240        H  0.01259898  0.28038985  0.51963724     0.15000
C241        C  0.01777122  0.69288658  0.32696567    -0.16700
C242        C  0.03814032  0.67496871  0.32875236     0.07400
C243        C  0.06394616  0.65622862  0.33201020     0.09200
C244        C  0.08725563  0.64201152  0.33550702    -0.17600
C245        C  0.10371942  0.36615116  0.34760930    -0.16700
C246        C  0.08175831  0.35086122  0.34433834     0.07400
C247        C  0.05781073  0.33099763  0.34217848     0.09200
C248        C  0.03897877  0.31274770  0.34262037    -0.17600
C249        C  0.14565561  0.54746570  0.33179864    -0.16700
C250        C  0.14872436  0.52058581  0.33102560     0.07400
C251        C  0.15181949  0.48899741  0.33252256     0.09200
C252        C  0.15335706  0.46202304  0.33580711    -0.17600
C253        C  0.09780123  0.74656722  0.73685849    -0.14600
C254        C  0.11801212  0.76871539  0.74223155    -0.29800
H255        H  0.10557242  0.72570031  0.75691244     0.14400
H256        H  0.11006804  0.78971246  0.72263833     0.15000
C257        C  0.27486142  0.82458634  0.83058378    -0.16700
C258        C  0.29444878  0.84205787  0.83081601     0.07400
C259        C  0.31882930  0.86079135  0.83155575     0.09200
C260        C  0.34106529  0.87501341  0.83304936    -0.17600
C261        C  0.36485175  0.76012312  0.24943549    -0.14600
C262        C  0.35046696  0.74012098  0.21505587    -0.29800
H263        H  0.35120447  0.77733259  0.25903162     0.14400
H264        H  0.36408456  0.72276890  0.20570534     0.15000
C265        C  0.13276522  0.86030248  0.16343790    -0.16700
C266        C  0.15531835  0.84529370  0.16546868     0.07400
C267        C  0.17991036  0.82598346  0.16502889     0.09200
C268        C  0.19884405  0.80771157  0.16231426    -0.17600
C269        C  0.17768797  0.63549626  0.28376918    -0.16700
C270        C  0.19263846  0.64586970  0.26205118     0.07400
C271        C  0.20905065  0.66049320  0.23702648     0.09200
C272        C  0.22172425  0.67527192  0.21607852    -0.17600
C273        C  0.23665451  0.73682622  0.00115980    -0.14600
C274        C  0.22331261  0.76029306  0.97207073    -0.29800
H275        H  0.24308767  0.71658248  0.98647336     0.14400
H276        H  0.21626893  0.78029387  0.98656679     0.15000
C277        C  0.19729100  0.61636373  0.43912205    -0.16700
C278        C  0.22049691  0.61652030  0.47532152     0.07400
C279        C  0.24779045  0.61694318  0.51751494     0.09200
C280        C  0.27091160  0.61776385  0.55378539    -0.17600
C281        C  0.28707355  0.64465732  0.70447646    -0.16700
C282        C  0.27164776  0.65697054  0.72426893     0.07400
C283        C  0.25528504  0.67475299  0.74658863     0.09200
C284        C  0.24301627  0.69247020  0.76484905    -0.17600
C285        C  0.44395556  0.70117100  0.65723573    -0.16700
C286        C  0.42436719  0.68378684  0.65775761     0.07400
C287        C  0.39992521  0.66478763  0.65660458     0.09200
C288        C  0.37789448  0.64993563  0.65461790    -0.17600
C289        C  0.20955422  0.39854665  0.45310790    -0.16700
C290        C  0.23127426  0.39991182  0.49119098     0.07400
C291        C  0.25665169  0.40103339  0.53592946     0.09200
C292        C  0.27849887  0.40152536  0.57396172    -0.17600
C293        C  0.38658691  0.37325640  0.68160329    -0.16700
C294        C  0.40933036  0.35819588  0.68479566     0.07400
C295        C  0.43430989  0.33864871  0.68680647     0.09200
C296        C  0.45414242  0.32047593  0.68713562    -0.17600
C297        C  0.33054864  0.46956987  0.68308478    -0.16700
C298        C  0.32927511  0.49660431  0.68282172     0.07400
C299        C  0.32857671  0.52821505  0.67933267     0.09200
C300        C  0.32850893  0.55499214  0.67374856    -0.17600
C301        C  0.12421805  0.26855479  0.78688268    -0.14600
C302        C  0.11028246  0.24911767  0.75131498    -0.29800
H303        H  0.11024535  0.28543352  0.79647235     0.14400
H304        H  0.12412971  0.23200330  0.74196816     0.15000
C305        C  0.27893180  0.20204273  0.85508327    -0.16700
C306        C  0.29871835  0.18363725  0.85610179     0.07400
C307        C  0.32374800  0.16420621  0.85794778     0.09200
C308        C  0.34621806  0.14921179  0.85958050    -0.17600
C309        C  0.29384119  0.38141810  0.72707254    -0.16700
C310        C  0.27826631  0.36968014  0.74656974     0.07400
C311        C  0.26184839  0.35290269  0.76925483     0.09200
C312        C  0.24979566  0.33644081  0.78896556    -0.17600
C313        C  0.36483946  0.23822525  0.26408653    -0.14600
C314        C  0.38413354  0.26031483  0.28651823    -0.29800
H315        H  0.37360604  0.21518452  0.26819082     0.14400
H316        H  0.37534844  0.28333151  0.28305553     0.15000
C317        C  0.20870887  0.18671956  0.17452022    -0.16700
C318        C  0.18893151  0.16889481  0.17206271     0.07400
C319        C  0.16423024  0.14987519  0.16893398     0.09200
C320        C  0.14182009  0.13557549  0.16646041    -0.17600
C321        C  0.19628750  0.37167411  0.30277678    -0.16700
C322        C  0.21154628  0.35794116  0.28401915     0.07400
C323        C  0.22713609  0.33853525  0.26236813     0.09200
C324        C  0.23877683  0.32008833  0.24415990    -0.17600
C325        C  0.25821510  0.25539200  0.03595782    -0.14600
C326        C  0.24036797  0.27654326  0.00548075    -0.29800
H327        H  0.26777790  0.23670180  0.02207093     0.14400
H328        H  0.23155802  0.29577084  0.01929326     0.15000
In329      In  0.77087105  0.24719600  0.18454321     1.36900
C330        C  0.72966829  0.20619694  0.18438774     0.79400
O331        O  0.75771998  0.26623327  0.24419782    -0.59100
O332        O  0.75514252  0.29513716  0.18612911    -0.50000
C333        C  0.83262703  0.24102560  0.23397252     0.72100
O334        O  0.81491686  0.21918473  0.21860983    -0.44800
C335        C  0.76367885  0.24909722  0.09157785     0.76800
O336        O  0.75670398  0.20676356  0.21654365    -0.56700
O337        O  0.75586954  0.27066321  0.11231445    -0.46800
O338        O  0.72370214  0.22637946  0.15267538    -0.53100
C339        C  0.75092458  0.29191220  0.22519498     0.86900
O340        O  0.81895233  0.26627918  0.22341663    -0.55000
O341        O  0.77646831  0.22718136  0.11885460    -0.58300
In342      In  0.72320381  0.26853923  0.86253457     1.36900
C343        C  0.76098551  0.22401359  0.85708533     0.79400
O344        O  0.72307622  0.28957775  0.79400829    -0.59100
O345        O  0.74858227  0.31073216  0.86034918    -0.50000
C346        C  0.66075720  0.26832913  0.81957592     0.72100
O347        O  0.67822370  0.24794976  0.81338193    -0.44800
C348        C  0.73599856  0.27061114  0.95750766     0.76800
O349        O  0.73216226  0.22038280  0.84704567    -0.56700
O350        O  0.72994176  0.29370980  0.93115385    -0.46800
O351        O  0.77033773  0.25012355  0.86973672    -0.53100
C352        C  0.74051334  0.31064995  0.81515514     0.86900
O353        O  0.67509218  0.28825176  0.84881135    -0.55000
O354        O  0.73456569  0.24639005  0.93515754    -0.58300
C355        C  0.85436672  0.38522434  0.66764502     0.88300
C356        C  0.82969676  0.38357668  0.61629021    -0.51900
C357        C  0.80203854  0.39747842  0.61137167     0.11200
C358        C  0.80144764  0.41168652  0.65792934     0.22200
C359        C  0.85735968  0.41874161  0.67940136    -0.52700
C360        C  0.82954416  0.43257077  0.67410582     0.11300
C361        C  0.83876558  0.37201599  0.70022241    -0.52200
C362        C  0.81102628  0.38587427  0.69503126     0.11900
H363        H  0.83370624  0.37246699  0.58662445     0.16400
H364        H  0.77880422  0.42296295  0.65359876     0.02100
H365        H  0.87917842  0.43060899  0.68941400     0.16700
H366        H  0.84845542  0.35310506  0.72449331     0.16500
C367        C  0.84414167  0.62828035  0.64218160     0.88300
C368        C  0.85029089  0.59557827  0.65957100    -0.51900
C369        C  0.82386549  0.58136476  0.65749455     0.11200
C370        C  0.79391981  0.60108285  0.63855466     0.22200
C371        C  0.81898886  0.62699264  0.59117994    -0.52700
C372        C  0.79273124  0.61271861  0.58945586     0.11300
C373        C  0.82780521  0.64305098  0.67304166    -0.52200
C374        C  0.80148678  0.62885614  0.67102237     0.11900
H375        H  0.87316250  0.58452453  0.67128746     0.16400
H376        H  0.77240851  0.58953087  0.63685707     0.02100
H377        H  0.82155686  0.63670759  0.55951696     0.16700
H378        H  0.83585329  0.66335994  0.69364654     0.16500
In379      In  0.75240360  0.73688236  0.13892968     1.36900
C380        C  0.71320930  0.78071288  0.14187575     0.79400
O381        O  0.74456919  0.76103476  0.06883032    -0.59100
O382        O  0.74748015  0.71359795  0.06937400    -0.50000
C383        C  0.81436793  0.73786216  0.18783212     0.72100
O384        O  0.79538918  0.75539645  0.19661970    -0.44800
C385        C  0.73296793  0.69308734  0.18069878     0.76800
O386        O  0.74196024  0.78493046  0.15227912    -0.56700
O387        O  0.72743071  0.69354398  0.13607218    -0.46800
O388        O  0.70452714  0.75435633  0.12980592    -0.53100
C389        C  0.74316462  0.73744757  0.04493148     0.86900
O390        O  0.80177146  0.72011154  0.15362828    -0.55000
O391        O  0.74918272  0.71427757  0.20409928    -0.58300
In392      In  0.71481439  0.76432969  0.81999551     1.36900
C393        C  0.75769777  0.80323144  0.81961126     0.79400
O394        O  0.71530359  0.78644864  0.88830791    -0.59100
O395        O  0.72288507  0.73948041  0.88963949    -0.50000
C396        C  0.65315407  0.77149322  0.77003698     0.72100
O397        O  0.67133658  0.79313084  0.78402573    -0.44800
C398        C  0.73280182  0.71891997  0.77812214     0.76800
O399        O  0.72957638  0.80569739  0.79124504    -0.56700
O400        O  0.73298535  0.71718278  0.82033546    -0.46800
O401        O  0.76393991  0.78099364  0.84774120    -0.53100
C402        C  0.72159575  0.76264776  0.91303107     0.86900
O403        O  0.66628073  0.74616466  0.78249296    -0.55000
O404        O  0.72336112  0.74374002  0.75708795    -0.58300
C405        C  0.62774412  0.37799468  0.35006603     0.88300
C406        C  0.65260750  0.38004615  0.40117997    -0.51900
C407        C  0.67880297  0.39434041  0.40279757     0.11200
C408        C  0.67781339  0.40536719  0.35351349     0.22200
C409        C  0.62132297  0.41041480  0.33143513    -0.52700
C410        C  0.64765145  0.42474002  0.33341304     0.11300
C411        C  0.64456894  0.36277892  0.32015942    -0.52200
C412        C  0.67085303  0.37710880  0.32215612     0.11900
H413        H  0.64996826  0.37065367  0.43299951     0.16400
H414        H  0.69927420  0.41701031  0.35519875     0.02100
H415        H  0.59834753  0.42128752  0.31924251     0.16700
H416        H  0.63696394  0.34209038  0.30046763     0.16500
C417        C  0.61632288  0.62141117  0.32557180     0.88300
C418        C  0.61312265  0.58771345  0.31526806    -0.51900
C419        C  0.64078951  0.57361152  0.32044813     0.11200
C420        C  0.66895159  0.59437442  0.33529505     0.22200
C421        C  0.64134316  0.62374135  0.37653793    -0.52700
C422        C  0.66883868  0.60949704  0.38149838     0.11300
C423        C  0.63157094  0.63371622  0.29186807    -0.52200
C424        C  0.65916357  0.61953621  0.29707144     0.11900
H425        H  0.59123456  0.57601687  0.30574859     0.16400
H426        H  0.69147130  0.58284949  0.33960200     0.02100
H427        H  0.63764049  0.63546332  0.40596509     0.16700
H428        H  0.62175484  0.65224516  0.26682033     0.16500
In429      In  0.98118350  0.24733844  0.35456963     1.36900
C430        C  0.51658841  0.28704939  0.35890937     0.79400
O431        O  0.99269180  0.26581533  0.42934402    -0.59100
O432        O  0.97937782  0.22052406  0.41755488    -0.50000
C433        C  0.91928010  0.25497121  0.30926105     0.72100
O434        O  0.93722239  0.27631451  0.32751099    -0.44800
C435        C  0.00253685  0.20377830  0.31355279     0.76800
O436        O  0.98961676  0.29012311  0.32151209    -0.56700
O437        O  0.00816975  0.20416685  0.35817798    -0.46800
O438        O  0.52659397  0.26265399  0.38106098    -0.53100
C439        C  0.98816016  0.24164104  0.44722227     0.86900
O440        O  0.93285629  0.22963889  0.31520223    -0.55000
O441        O  0.98570629  0.22525428  0.28977653    -0.58300
In442      In  0.51531089  0.25298851  0.68520497     1.36900
C443        C  0.97456054  0.29606542  0.67537305     0.79400
O444        O  0.52031981  0.27577968  0.62139020    -0.59100
O445        O  0.00249348  0.23328048  0.59966811    -0.50000
C446        C  0.57713205  0.25072942  0.73426260     0.72100
O447        O  0.55987416  0.27207208  0.73810204    -0.44800
C448        C  0.99422381  0.20877724  0.71426722     0.76800
O449        O  0.00366371  0.29828768  0.69692053    -0.56700
O450        O  0.99191312  0.20789416  0.67088717    -0.46800
O451        O  0.96599889  0.27198691  0.65285707    -0.53100
C452        C  0.50840239  0.25489870  0.59239818     0.86900
O453        O  0.56285272  0.23070214  0.70514089    -0.55000
O454        O  0.50688388  0.23385301  0.74878192    -0.58300
C455        C  0.87786044  0.13212542  0.85804609     0.88300
C456        C  0.87355246  0.09916081  0.84276951    -0.51900
C457        C  0.90062776  0.08506558  0.84480007     0.11200
C458        C  0.92937310  0.10515470  0.86169783     0.22200
C459        C  0.90362742  0.13163944  0.90868098    -0.52700
C460        C  0.93059330  0.11752442  0.91044962     0.11300
C461        C  0.89275787  0.14652526  0.82538838    -0.52200
C462        C  0.91973488  0.13237694  0.82737554     0.11900
H463        H  0.85136553  0.08789329  0.83222726     0.16400
H464        H  0.95140504  0.09367988  0.86335086     0.02100
H465        H  0.90090393  0.14172763  0.94007237     0.16700
H466        H  0.88312734  0.16635188  0.80329518     0.16500
C467        C  0.87895624  0.88813256  0.83346452     0.88300
C468        C  0.90441165  0.88449291  0.88403913    -0.51900
C469        C  0.93146912  0.89844017  0.88901977     0.11200
C470        C  0.93070869  0.91459014  0.84304549     0.22200
C471        C  0.87477394  0.92204852  0.82446974    -0.52700
C472        C  0.90194093  0.93590873  0.82960480     0.11300
C473        C  0.89407573  0.87649550  0.79883006    -0.52200
C474        C  0.92124309  0.89022876  0.80395440     0.11900
H475        H  0.90127595  0.87218004  0.91325263     0.16400
H476        H  0.95285054  0.92584301  0.84728952     0.02100
H477        H  0.85259956  0.93407465  0.81600817     0.16700
H478        H  0.88472182  0.85831868  0.77366766     0.16500
In479      In  0.95758736  0.76158699  0.32689390     1.36900
C480        C  0.49908521  0.71281732  0.32227294     0.79400
O481        O  0.95827292  0.78526157  0.26049762    -0.59100
O482        O  0.98411495  0.80367590  0.32895047    -0.50000
C483        C  0.89575784  0.75694234  0.27966205     0.72100
O484        O  0.91543562  0.74117307  0.26945069    -0.44800
C485        C  0.96819173  0.76708652  0.42078938     0.76800
O486        O  0.96840774  0.71229598  0.32272559    -0.56700
O487        O  0.95775099  0.78836627  0.39101303    -0.46800
O488        O  0.50869216  0.73832358  0.33834255    -0.53100
C489        C  0.97654075  0.80521405  0.28392513     0.86900
O490        O  0.90763248  0.77449422  0.31438084    -0.55000
O491        O  0.97236015  0.74272771  0.40241839    -0.58300
In492      In  0.50460295  0.76472386  0.64854908     1.36900
C493        C  0.96131178  0.71679568  0.64834452     0.79400
O494        O  0.49961880  0.78468452  0.71447349    -0.59100
O495        O  0.99425831  0.80567302  0.65406700    -0.50000
C496        C  0.56650273  0.75729263  0.69503396     0.72100
O497        O  0.54872466  0.73587612  0.67650131    -0.44800
C498        C  0.49679255  0.77026933  0.55523259     0.76800
O499        O  0.99015921  0.71141306  0.66932760    -0.56700
O500        O  0.98652852  0.77465178  0.57438653    -0.46800
O501        O  0.95429127  0.74215312  0.62832593    -0.53100
C502        C  0.98933703  0.80337013  0.69270104     0.86900
O503        O  0.55278535  0.78254216  0.68884605    -0.55000
O504        O  0.50568383  0.79149903  0.58469670    -0.58300
C505        C  0.60848791  0.12108818  0.16837570     0.88300
C506        C  0.61259326  0.08744896  0.18001683    -0.51900
C507        C  0.58547367  0.07409291  0.17648751     0.11200
C508        C  0.55687088  0.09562727  0.16219628     0.22200
C509        C  0.58267353  0.12352169  0.11786104    -0.52700
C510        C  0.55565665  0.11014342  0.11485743     0.11300
C511        C  0.59379250  0.13439061  0.20251606    -0.52200
C512        C  0.56672912  0.12113100  0.19917783     0.11900
H513        H  0.63462624  0.07514892  0.18859590     0.16400
H514        H  0.53477318  0.08480209  0.15941596     0.02100
H515        H  0.58541607  0.13487036  0.08752779     0.16700
H516        H  0.60348419  0.15311124  0.22631511     0.16500
C517        C  0.59991303  0.87638147  0.14602478     0.88300
C518        C  0.57393138  0.87873604  0.09575744    -0.51900
C519        C  0.54823537  0.89468885  0.09520283     0.11200
C520        C  0.55075344  0.90683470  0.14465219     0.22200
C521        C  0.60687173  0.90888379  0.16272591    -0.52700
C522        C  0.58102029  0.92483175  0.16183591     0.11300
C523        C  0.58424547  0.86300758  0.17844876    -0.52200
C524        C  0.55842169  0.87892119  0.17755053     0.11900
H525        H  0.57556166  0.86850849  0.06369900     0.16400
H526        H  0.52968700  0.91979030  0.14385064     0.02100
H527        H  0.62983356  0.91859078  0.17296046     0.16700
H528        H  0.59222088  0.84232626  0.19896291     0.16500
C529        C  0.58167421  0.95654040  0.17180412    -0.16700
C530        C  0.58209826  0.98336503  0.17721472     0.07400
C531        C  0.58265458  0.01499494  0.18041514     0.09200
C532        C  0.58352918  0.04201217  0.18037517    -0.17600
C533        C  0.98945654  0.82687556  0.26136046    -0.16700
C534        C  0.50516104  0.84015628  0.24192437     0.07400
C535        C  0.52254581  0.85668214  0.22050217     0.09200
C536        C  0.53854956  0.86829539  0.20158811    -0.17600
C537        C  0.99206775  0.75039649  0.50574626    -0.14600
C538        C  0.97492528  0.77073424  0.47280986    -0.29800
H539        H  0.49729376  0.79459022  0.49093096     0.14400
H540        H  0.96594178  0.79081303  0.48427220     0.15000
C541        C  0.95811585  0.89831061  0.93404615    -0.16700
C542        C  0.97994421  0.89797877  0.97223903     0.07400
C543        C  0.49810293  0.90100733  0.01512791     0.09200
C544        C  0.52081699  0.89879497  0.05192293    -0.17600
C545        C  0.94051260  0.87972025  0.77828824    -0.16700
C546        C  0.95475994  0.86661258  0.75726212     0.07400
C547        C  0.96920083  0.84729998  0.73375621     0.09200
C548        C  0.97956543  0.82830969  0.71463027    -0.17600
C549        C  0.52811225  0.11012141  0.07123597    -0.16700
C550        C  0.50471474  0.11032337  0.03528496     0.07400
C551        C  0.98103454  0.11384161  0.99086694     0.09200
C552        C  0.95805212  0.11520548  0.95423572    -0.17600
C553        C  0.90229499  0.05350842  0.83506302    -0.16700
C554        C  0.90329986  0.02674815  0.82966167     0.07400
C555        C  0.90384611  0.99512421  0.82658058     0.09200
C556        C  0.90355075  0.96808213  0.82657875    -0.17600
C557        C  0.93810800  0.14332746  0.80113494    -0.16700
C558        C  0.95264382  0.15467469  0.77957367     0.07400
C559        C  0.96859597  0.17059058  0.75518112     0.09200
C560        C  0.98111281  0.18661779  0.73560720    -0.17600
C561        C  0.51049633  0.17915603  0.29705621    -0.16700
C562        C  0.52102752  0.16218085  0.27516583     0.07400
C563        C  0.53480158  0.14470490  0.24851596     0.09200
C564        C  0.54829848  0.13226055  0.22576295    -0.17600
C565        C  0.99280879  0.23804598  0.49859946    -0.14600
C566        C  0.00548070  0.25959894  0.53103553    -0.29800
H567        H  0.98590104  0.21714682  0.50998986     0.14400
H568        H  0.51226552  0.27686486  0.52909444     0.15000
C569        C  0.52006158  0.68913511  0.32001451    -0.16700
C570        C  0.53947602  0.67095092  0.31877690     0.07400
C571        C  0.56421610  0.65172660  0.31878208     0.09200
C572        C  0.58693041  0.63706839  0.32063798    -0.17600
C573        C  0.59994737  0.36205029  0.34882298    -0.16700
C574        C  0.57873590  0.34706511  0.34978496     0.07400
C575        C  0.55566074  0.32764109  0.35243743     0.09200
C576        C  0.53723724  0.30970736  0.35530423    -0.17600
C577        C  0.64350589  0.54162470  0.31572655    -0.16700
C578        C  0.64528091  0.51465850  0.31456650     0.07400
C579        C  0.64670050  0.48302683  0.31688928     0.09200
C580        C  0.64739408  0.45622037  0.32240795    -0.17600
C581        C  0.60043298  0.75283390  0.72238596    -0.14600
C582        C  0.61937576  0.77584726  0.74152023    -0.29800
H583        H  0.60994628  0.73003570  0.72737238     0.14400
H584        H  0.60992564  0.79867119  0.73589189     0.15000
C585        C  0.78110453  0.82405218  0.81999147    -0.16700
C586        C  0.80187640  0.84052423  0.82167112     0.07400
C587        C  0.82734516  0.85856001  0.82477298     0.09200
C588        C  0.85005637  0.87273824  0.82826191    -0.17600
C589        C  0.86160020  0.75577650  0.25317675    -0.14600
C590        C  0.84853732  0.73789764  0.21497756    -0.29800
H591        H  0.84684375  0.77054996  0.26498890     0.14400
H592        H  0.86319720  0.72298602  0.20319750     0.15000
C593        C  0.62730385  0.85873090  0.14630870    -0.16700
C594        C  0.64862361  0.84273919  0.14571541     0.07400
C595        C  0.67240856  0.82251782  0.14464347     0.09200
C596        C  0.69169157  0.80408948  0.14355682    -0.17600
C597        C  0.67799104  0.62892872  0.27059556    -0.16700
C598        C  0.69261076  0.63954205  0.24856627     0.07400
C599        C  0.70831410  0.65513643  0.22346127     0.09200
C600        C  0.72042567  0.67106318  0.20313293    -0.17600
C601        C  0.73665077  0.73741370  0.99253132    -0.14600
C602        C  0.72770468  0.76243938  0.96529369    -0.29800
H603        H  0.73871901  0.71622546  0.97589822     0.14400
H604        H  0.72542934  0.78357172  0.98192324     0.15000
C605        C  0.69532946  0.60860804  0.42651264    -0.16700
C606        C  0.71745582  0.60820545  0.46421342     0.07400
C607        C  0.74349452  0.60853076  0.50816199     0.09200
C608        C  0.76587882  0.60982496  0.54538498    -0.17600
C609        C  0.78168733  0.64103570  0.69452106    -0.16700
C610        C  0.76732493  0.65518020  0.71419621     0.07400
C611        C  0.75322616  0.67533630  0.73689129     0.09200
C612        C  0.74311643  0.69457797  0.75585399    -0.17600
C613        C  0.93806420  0.69569669  0.64752836    -0.16700
C614        C  0.91801644  0.67855575  0.64671738     0.07400
C615        C  0.89375422  0.65940051  0.64549002     0.09200
C616        C  0.87206668  0.64430081  0.64414122    -0.17600
C617        C  0.70559573  0.39733351  0.44687401    -0.16700
C618        C  0.72787504  0.39859488  0.48421258     0.07400
C619        C  0.75372978  0.39895891  0.52834851     0.09200
C620        C  0.77571204  0.39857164  0.56620147    -0.17600
C621        C  0.88394140  0.36987364  0.67267377    -0.16700
C622        C  0.90696558  0.35547324  0.67523417     0.07400
C623        C  0.93233452  0.33665030  0.67662555     0.09200
C624        C  0.95251028  0.31897721  0.67662762    -0.17600
C625        C  0.82656701  0.46458231  0.67815508    -0.16700
C626        C  0.82495362  0.49158446  0.67811013     0.07400
C627        C  0.82403968  0.52316343  0.67439799     0.09200
C628        C  0.82381965  0.54988708  0.66830016    -0.17600
C629        C  0.62642494  0.26950007  0.79417213    -0.14600
C630        C  0.61128021  0.24898362  0.76122648    -0.29800
H631        H  0.61345058  0.28807936  0.80192992     0.14400
H632        H  0.62426724  0.23038990  0.75355484     0.15000
C633        C  0.78201359  0.20029410  0.85479694    -0.16700
C634        C  0.80165560  0.18207973  0.85431562     0.07400
C635        C  0.82651047  0.16269087  0.85493633     0.09200
C636        C  0.84901928  0.14786275  0.85609679    -0.17600
C637        C  0.79193818  0.37557065  0.72051091    -0.16700
C638        C  0.77753085  0.36424624  0.74227889     0.07400
C639        C  0.76260113  0.34811138  0.76797450     0.09200
C640        C  0.75153625  0.33211829  0.78973463    -0.17600
C641        C  0.86648467  0.23679276  0.26191953    -0.14600
C642        C  0.88530973  0.25961689  0.28244385    -0.29800
H643        H  0.87612715  0.21406353  0.26591735     0.14400
H644        H  0.87571205  0.28234621  0.27888341     0.15000
C645        C  0.70700305  0.18447424  0.18377950    -0.16700
C646        C  0.68633340  0.16762255  0.18110836     0.07400
C647        C  0.66054933  0.14963987  0.17645335     0.09200
C648        C  0.63748573  0.13585202  0.17230633    -0.17600
C649        C  0.69155695  0.36473098  0.30034938    -0.16700
C650        C  0.70786940  0.35155549  0.28290258     0.07400
C651        C  0.72521136  0.33319400  0.26286978     0.09200
C652        C  0.73814099  0.31535241  0.24578598    -0.17600
C653        C  0.75738239  0.24865440  0.03935450    -0.14600
C654        C  0.74401494  0.27207232  0.01014647    -0.29800
H655        H  0.76309672  0.22818273  0.02436295     0.14400
H656        H  0.73911831  0.29288903  0.02515984     0.15000
loop_ 
_geom_bond_atom_site_label_1 
_geom_bond_atom_site_label_2 
_geom_bond_distance 
_geom_bond_site_symmetry_2 
_ccdc_geom_bond_type 
In1           O3   2.249       .  S
In1           O4   2.257       .  S
In1          O12   2.267       .  S
In1           O6   2.249       .  S
In1           O8   2.249       .  S
In1           O9   2.255       .  S
In1          O10   2.242       .  S
In1          O13   2.253       .  S
C2            O8   1.260       .  A
C2           O10   1.259       .  A
C2          C317   1.433       .  S
O3           C11   1.258       .  A
O4           C11   1.260       .  A
C5           O12   1.261       .  A
C5            O6   1.257       .  A
C5          C313   1.476       .  S
C7            O9   1.259       .  A
C7           O13   1.258       .  A
C7          C325   1.474       .  S
C11         C324   1.438       .  S
In14         O16   2.254       .  S
In14         O17   2.253       .  S
In14         O25   2.252       .  S
In14         O19   2.258       .  S
In14         O21   2.255       .  S
In14         O22   2.259       .  S
In14         O23   2.235       .  S
In14         O26   2.250       .  S
C15          O21   1.262       .  A
C15          O23   1.259       .  A
C15         C305   1.436       .  S
O16          C24   1.258       .  A
O17          C24   1.258       .  A
C18          O25   1.258       .  A
C18          O19   1.260       .  A
C18         C301   1.475       .  S
C20          O22   1.260       .  A
C20          O26   1.259       .  A
C20         C326   1.474   1_556  S
C24         C312   1.436       .  S
C27          C28   1.535       .  S
C27          C33   1.532       .  S
C27          C31   1.533       .  S
C27         C293   1.469       .  S
C28          H35   1.086       .  S
C28          C29   1.363       .  D
C29          C30   1.536       .  S
C29         C292   1.441       .  S
C30          C34   1.538       .  S
C30          C32   1.540       .  S
C30          H36   1.112       .  S
C31          H37   1.086       .  S
C31          C32   1.365       .  D
C32         C297   1.443       .  S
C33          H38   1.086       .  S
C33          C34   1.364       .  D
C34         C309   1.443       .  S
C39          C40   1.535       .  S
C39          C45   1.532       .  S
C39          C43   1.536       .  S
C39         C288   1.471       .  S
C40          H47   1.086       .  S
C40          C41   1.366       .  D
C41          C42   1.537       .  S
C41         C300   1.443       .  S
C42          C46   1.535       .  S
C42          C44   1.535       .  S
C42          H48   1.112       .  S
C43          H49   1.086       .  S
C43          C44   1.364       .  D
C44         C280   1.441       .  S
C45          H50   1.086       .  S
C45          C46   1.363       .  D
C46         C281   1.440       .  S
In51         O53   2.249       .  S
In51         O54   2.256       .  S
In51         O62   2.255       .  S
In51         O56   2.252       .  S
In51         O58   2.254       .  S
In51         O59   2.257       .  S
In51         O60   2.236       .  S
In51         O63   2.250       .  S
C52          O58   1.262       .  A
C52          O60   1.260       .  A
C52         C268   1.436       .  S
O53          C61   1.258       .  A
O54          C61   1.259       .  A
C55          O62   1.259       .  A
C55          O56   1.260       .  A
C55         C262   1.475       .  S
C57          O59   1.259       .  A
C57          O63   1.258       .  A
C57         C272   1.437       .  S
C61         C273   1.472       .  S
In64         O66   2.257       .  S
In64         O67   2.242       .  S
In64         O75   2.258       .  S
In64         O69   2.245       .  S
In64         O71   2.246       .  S
In64         O72   2.251       .  S
In64         O73   2.244       .  S
In64         O76   2.243       .  S
C65          O71   1.258       .  A
C65          O73   1.259       .  A
C65         C257   1.432       .  S
O66          C74   1.259       .  A
O67          C74   1.258       .  A
C68          O75   1.260       .  A
C68          O69   1.257       .  A
C68         C254   1.472       .  S
C70          O72   1.258       .  A
C70          O76   1.258       .  A
C70         C284   1.433       .  S
C74         C274   1.472       .  S
C77          C78   1.535       .  S
C77          C83   1.530       .  S
C77          C81   1.532       .  S
C77         C245   1.469       .  S
C78          H85   1.086       .  S
C78          C79   1.364       .  D
C79          C80   1.537       .  S
C79         C289   1.442       .  S
C80          C84   1.540       .  S
C80          C82   1.541       .  S
C80          H86   1.112       .  S
C81          H87   1.087       .  S
C81          C82   1.365       .  D
C82         C252   1.442       .  S
C83          H88   1.087       .  S
C83          C84   1.362       .  D
C84         C321   1.443       .  S
C89          C90   1.534       .  S
C89          C95   1.534       .  S
C89          C93   1.536       .  S
C89         C244   1.469       .  S
C90          H97   1.086       .  S
C90          C91   1.365       .  D
C91          C92   1.537       .  S
C91         C249   1.442       .  S
C92          C96   1.536       .  S
C92          C94   1.534       .  S
C92          H98   1.112       .  S
C93          H99   1.086       .  S
C93          C94   1.364       .  D
C94         C277   1.440       .  S
C95         H100   1.086       .  S
C95          C96   1.364       .  D
C96         C269   1.442       .  S
In101       O103   2.245       .  S
In101       O104   2.271       .  S
In101       O112   2.255       .  S
In101       O106   2.257       .  S
In101       O108   2.247       .  S
In101       O109   2.259       .  S
In101       O113   2.242       .  S
In101       O438   2.243       .  S
C102        O110   1.259       .  A
C102        O436   1.260   1_455  A
C102        C248   1.437       .  S
O103        C111   1.257       .  A
O104        C111   1.259       .  A
C105        O112   1.260       .  A
C105        O106   1.259       .  A
C105        C314   1.478       .  S
C107        O109   1.260       .  A
C107        O113   1.258       .  A
C107        C561   1.436       .  S
O108        C430   1.260       .  A
O110       In429   2.245   1_455  S
C111        C237   1.477       .  S
In114       O116   2.249       .  S
In114       O125   2.257       .  S
In114       O119   2.248       .  S
In114       O126   2.243       .  S
In114       O445   2.250       .  S
In114       O449   2.258       .  S
In114       O450   2.257   1_455  S
In114       O451   2.244   1_455  S
C115        O121   1.260       .  A
C115        O123   1.258       .  A
C115        C296   1.436       .  S
O116        C124   1.260       .  A
O117       In442   2.256       .  S
O117        C452   1.260       .  A
C118        O125   1.260       .  A
C118        O119   1.260       .  A
C118        C302   1.477       .  S
C120        O122   1.259       .  A
C120        O454   1.259       .  A
C120        C232   1.436       .  S
O121       In442   2.257       .  S
O122       In442   2.252       .  S
O123       In442   2.244       .  S
C124        O445   1.261       .  A
C124        C566   1.475       .  S
O126        C448   1.258   1_455  A
C127        C128   1.533       .  S
C127        C133   1.534       .  S
C127        C131   1.535       .  S
C127        C308   1.469       .  S
C128        H135   1.086       .  S
C128        C129   1.364       .  D
C129        C130   1.538       .  S
C129        C225   1.441       .  S
C130        C134   1.536       .  S
C130        C132   1.535       .  S
C130        H136   1.112       .  S
C131        H137   1.086       .  S
C131        C132   1.364       .  D
C132        C224   1.441       .  S
C133        H138   1.086       .  S
C133        C134   1.364       .  D
C134        C229   1.442       .  S
C139        C140   1.534       .  S
C139        C145   1.531       .  S
C139        C143   1.532       .  S
C139        C260   1.465       .  S
C140        H147   1.087       .  S
C140        C141   1.363       .  D
C141        C142   1.536       .  S
C141        C213   1.440       .  S
C142        C146   1.538       .  S
C142        C144   1.539       .  S
C142        H148   1.112       .  S
C143        H149   1.087       .  S
C143        C144   1.364       .  D
C144        C228   1.441       .  S
C145        H150   1.087       .  S
C145        C146   1.363       .  D
C146        C217   1.442       .  S
In151       O153   2.247       .  S
In151       O154   2.257       .  S
In151       O162   2.258       .  S
In151       O156   2.254       .  S
In151       O158   2.255       .  S
In151       O159   2.264       .  S
In151       O163   2.250       .  S
In151       O488   2.241       .  S
C152        O160   1.258   1_655  A
C152        O486   1.262       .  A
C152        C241   1.435   1_655  S
O153        C161   1.258       .  A
O154        C161   1.260       .  A
C155        O162   1.259       .  A
C155        O156   1.259       .  A
C155        C261   1.476       .  S
C157        O159   1.261       .  A
C157        O163   1.259       .  A
C157        C210   1.478       .  S
O158        C480   1.260       .  A
O160       In479   2.235   1_455  S
C161        C205   1.438       .  S
In164       O166   2.245   1_455  S
In164       O175   2.251       .  S
In164       O169   2.247       .  S
In164       O176   2.257       .  S
In164       O495   2.257   1_455  S
In164       O499   2.250   1_455  S
In164       O500   2.252   1_455  S
In164       O501   2.246   1_455  S
C165        O171   1.261       .  A
C165        O173   1.259       .  A
C165        C285   1.438       .  S
O166        C502   1.258       .  A
O167       In492   2.253       .  S
O167        C174   1.260       .  A
C168        O175   1.262       .  A
C168        O169   1.258       .  A
C168        C253   1.473       .  S
C170        O176   1.259   1_655  A
C170        O500   1.259       .  A
C170        C537   1.476       .  S
O171       In492   2.258       .  S
O172       In492   2.255       .  S
O172        C498   1.258       .  A
O173       In492   2.244       .  S
C174        O494   1.259       .  A
C174        C220   1.436       .  S
C177        C178   1.533       .  S
C177        C183   1.531       .  S
C177        C181   1.535       .  S
C177        C320   1.466       .  S
C178        H185   1.087       .  S
C178        C179   1.365       .  D
C179        C180   1.538       .  S
C179        C204   1.441       .  S
C180        C184   1.536       .  S
C180        C182   1.537       .  S
C180        H186   1.112       .  S
C181        H187   1.086       .  S
C181        C182   1.364       .  D
C182        C221   1.443       .  S
C183        H188   1.087       .  S
C183        C184   1.362       .  D
C184        C236   1.438       .  S
C189        C190   1.536       .  S
C189        C195   1.534       .  S
C189        C193   1.531       .  S
C189        C265   1.470       .  S
C190        H197   1.086       .  S
C190        C191   1.364       .  D
C191        C192   1.537       .  S
C191        C216   1.444       .  S
C192        C196   1.538       .  S
C192        C194   1.540       .  S
C192        H198   1.112       .  S
C193        H199   1.087       .  S
C193        C194   1.364       .  D
C194        C201   1.441       .  S
C195        H200   1.086       .  S
C195        C196   1.365       .  D
C196        C208   1.444       .  S
C201        C202   1.205       .  T
C202        C203   1.412   1_565  S
C203        C204   1.205       .  T
C205        C534   1.207       .  T
C206        C533   1.207   1_455  T
C206        C207   1.414       .  S
C207        C208   1.207       .  T
C209        C498   1.480       .  S
C209        H539   1.086       .  S
C209        C210   1.346       .  D
C210        H212   1.086       .  S
H211        C537   1.087   1_455  S
C213        C214   1.205       .  T
C214        C543   1.411   1_556  S
C215        C216   1.207       .  T
C215        C542   1.415   1_454  S
C217        C218   1.206       .  T
C218        C219   1.412       .  S
C219        C220   1.206       .  T
C221        C222   1.207       .  T
C222        C551   1.414   1_454  S
C223        C224   1.205       .  T
C223        C550   1.412   1_556  S
C225        C226   1.205       .  T
C226        C227   1.411   1_545  S
C227        C228   1.205       .  T
C229        C230   1.206       .  T
C230        C231   1.413       .  S
C231        C232   1.206       .  T
C233        C435   1.433       .  S
C233        C234   1.204       .  T
C234        C235   1.410       .  S
C235        C236   1.204       .  T
C237        H239   1.086       .  S
C237        C238   1.345       .  D
C238        C452   1.474       .  S
C238        H568   1.087       .  S
H240        C566   1.087       .  S
C241        C242   1.206       .  T
C242        C243   1.412       .  S
C243        C244   1.206       .  T
C245        C246   1.207       .  T
C246        C247   1.413       .  S
C247        C248   1.207       .  T
C249        C250   1.206       .  T
C250        C251   1.413       .  S
C251        C252   1.206       .  T
C253        H255   1.087       .  S
C253        C254   1.341       .  D
C254        H256   1.087       .  S
C257        C258   1.204       .  T
C258        C259   1.409       .  S
C259        C260   1.204       .  T
C261        H263   1.086       .  S
C261        C262   1.344       .  D
C262        H264   1.086       .  S
C265        C266   1.206       .  T
C266        C267   1.413       .  S
C267        C268   1.206       .  T
C269        C270   1.206       .  T
C270        C271   1.413       .  S
C271        C272   1.206       .  T
C273        H275   1.086   1_554  S
C273        C274   1.343   1_554  D
C274        H276   1.086       .  S
C277        C278   1.205       .  T
C278        C279   1.411       .  S
C279        C280   1.205       .  T
C281        C282   1.205       .  T
C282        C283   1.410       .  S
C283        C284   1.204       .  T
C285        C286   1.207       .  T
C286        C287   1.415       .  S
C287        C288   1.207       .  T
C289        C290   1.206       .  T
C290        C291   1.412       .  S
C291        C292   1.206       .  T
C293        C294   1.206       .  T
C294        C295   1.412       .  S
C295        C296   1.206       .  T
C297        C298   1.206       .  T
C298        C299   1.413       .  S
C299        C300   1.206       .  T
C301        H303   1.086       .  S
C301        C302   1.344       .  D
C302        H304   1.086       .  S
C305        C306   1.206       .  T
C306        C307   1.412       .  S
C307        C308   1.206       .  T
C309        C310   1.206       .  T
C310        C311   1.413       .  S
C311        C312   1.206       .  T
C313        H315   1.087       .  S
C313        C314   1.343       .  D
C314        H316   1.087       .  S
C317        C318   1.204       .  T
C318        C319   1.410       .  S
C319        C320   1.205       .  T
C321        C322   1.207       .  T
C322        C323   1.414       .  S
C323        C324   1.207       .  T
C325        H327   1.087       .  S
C325        C326   1.344       .  D
C326        H328   1.086       .  S
In329       O331   2.244       .  S
In329       O332   2.250       .  S
In329       O340   2.269       .  S
In329       O334   2.253       .  S
In329       O336   2.261       .  S
In329       O337   2.255       .  S
In329       O338   2.245       .  S
In329       O341   2.251       .  S
C330        O336   1.259       .  A
C330        O338   1.257       .  A
C330        C645   1.436       .  S
O331        C339   1.259       .  A
O332        C339   1.260       .  A
C333        O340   1.260       .  A
C333        O334   1.258       .  A
C333        C641   1.478       .  S
C335        O337   1.260       .  A
C335        O341   1.259       .  A
C335        C653   1.475       .  S
C339        C652   1.435       .  S
In342       O344   2.249       .  S
In342       O345   2.252       .  S
In342       O353   2.258       .  S
In342       O347   2.261       .  S
In342       O349   2.259       .  S
In342       O350   2.256       .  S
In342       O351   2.240       .  S
In342       O354   2.255       .  S
C343        O349   1.262       .  A
C343        O351   1.259       .  A
C343        C633   1.438       .  S
O344        C352   1.258       .  A
O345        C352   1.259       .  A
C346        O353   1.258       .  A
C346        O347   1.260       .  A
C346        C629   1.478       .  S
C348        O350   1.259       .  A
C348        O354   1.260       .  A
C348        C654   1.475   1_556  S
C352        C640   1.435       .  S
C355        C356   1.534       .  S
C355        C361   1.532       .  S
C355        C359   1.533       .  S
C355        C621   1.469       .  S
C356        H363   1.086       .  S
C356        C357   1.363       .  D
C357        C358   1.536       .  S
C357        C620   1.440       .  S
C358        C362   1.538       .  S
C358        C360   1.538       .  S
C358        H364   1.112       .  S
C359        H365   1.086       .  S
C359        C360   1.365       .  D
C360        C625   1.441       .  S
C361        H366   1.086       .  S
C361        C362   1.364       .  D
C362        C637   1.442       .  S
C367        C368   1.534       .  S
C367        C373   1.530       .  S
C367        C371   1.534       .  S
C367        C616   1.468       .  S
C368        H375   1.086       .  S
C368        C369   1.366       .  D
C369        C370   1.538       .  S
C369        C628   1.442       .  S
C370        C374   1.537       .  S
C370        C372   1.536       .  S
C370        H376   1.112       .  S
C371        H377   1.087       .  S
C371        C372   1.364       .  D
C372        C608   1.440       .  S
C373        H378   1.087       .  S
C373        C374   1.362       .  D
C374        C609   1.440       .  S
In379       O381   2.257       .  S
In379       O382   2.257       .  S
In379       O390   2.261       .  S
In379       O384   2.259       .  S
In379       O386   2.255       .  S
In379       O387   2.257       .  S
In379       O388   2.243       .  S
In379       O391   2.246       .  S
C380        O386   1.262       .  A
C380        O388   1.259       .  A
C380        C596   1.437       .  S
O381        C389   1.260       .  A
O382        C389   1.260       .  A
C383        O390   1.259       .  A
C383        O384   1.260       .  A
C383        C590   1.479       .  S
C385        O387   1.259       .  A
C385        O391   1.258       .  A
C385        C600   1.436       .  S
C389        C601   1.478   1_554  S
In392       O394   2.257       .  S
In392       O395   2.258       .  S
In392       O403   2.264       .  S
In392       O397   2.261       .  S
In392       O399   2.258       .  S
In392       O400   2.246       .  S
In392       O401   2.245       .  S
In392       O404   2.248       .  S
C393        O399   1.259       .  A
C393        O401   1.258       .  A
C393        C585   1.436       .  S
O394        C402   1.259       .  A
O395        C402   1.260       .  A
C396        O403   1.259       .  A
C396        O397   1.258       .  A
C396        C582   1.479       .  S
C398        O400   1.259       .  A
C398        O404   1.260       .  A
C398        C612   1.435       .  S
C402        C602   1.478       .  S
C405        C406   1.534       .  S
C405        C411   1.533       .  S
C405        C409   1.533       .  S
C405        C573   1.467       .  S
C406        H413   1.087       .  S
C406        C407   1.363       .  D
C407        C408   1.535       .  S
C407        C617   1.439       .  S
C408        C412   1.537       .  S
C408        C410   1.539       .  S
C408        H414   1.112       .  S
C409        H415   1.086       .  S
C409        C410   1.366       .  D
C410        C580   1.442       .  S
C411        H416   1.086       .  S
C411        C412   1.364       .  D
C412        C649   1.441       .  S
C417        C418   1.534       .  S
C417        C423   1.533       .  S
C417        C421   1.534       .  S
C417        C572   1.468       .  S
C418        H425   1.086       .  S
C418        C419   1.365       .  D
C419        C420   1.537       .  S
C419        C577   1.442       .  S
C420        C424   1.537       .  S
C420        C422   1.536       .  S
C420        H426   1.112       .  S
C421        H427   1.087       .  S
C421        C422   1.363       .  D
C422        C605   1.440       .  S
C423        H428   1.086       .  S
C423        C424   1.364       .  D
C424        C597   1.442       .  S
In429       O431   2.253       .  S
In429       O432   2.257       .  S
In429       O440   2.257       .  S
In429       O434   2.258       .  S
In429       O436   2.256       .  S
In429       O437   2.251   1_655  S
In429       O441   2.245       .  S
C430        O438   1.260       .  A
C430        C576   1.434       .  S
O431        C439   1.259       .  A
O432        C439   1.259       .  A
C433        O440   1.260       .  A
C433        O434   1.259       .  A
C433        C642   1.479       .  S
C435        O437   1.258       .  A
C435        O441   1.258   1_455  A
C439        C565   1.475       .  S
In442       O444   2.248       .  S
In442       O453   2.254       .  S
In442       O447   2.258       .  S
In442       O454   2.246       .  S
C443        O449   1.260   1_655  A
C443        O451   1.258       .  A
C443        C624   1.436       .  S
O444        C452   1.259       .  A
C446        O453   1.259       .  A
C446        O447   1.260       .  A
C446        C630   1.478       .  S
C448        O450   1.259       .  A
C448        C560   1.436       .  S
C455        C456   1.535       .  S
C455        C461   1.533       .  S
C455        C459   1.536       .  S
C455        C636   1.472       .  S
C456        H463   1.086       .  S
C456        C457   1.366       .  D
C457        C458   1.538       .  S
C457        C553   1.444       .  S
C458        C462   1.537       .  S
C458        C460   1.537       .  S
C458        H464   1.112       .  S
C459        H465   1.086       .  S
C459        C460   1.364       .  D
C460        C552   1.444       .  S
C461        H466   1.087       .  S
C461        C462   1.363       .  D
C462        C557   1.442       .  S
C467        C468   1.535       .  S
C467        C473   1.530       .  S
C467        C471   1.533       .  S
C467        C588   1.468       .  S
C468        H475   1.087       .  S
C468        C469   1.364       .  D
C469        C470   1.539       .  S
C469        C541   1.444       .  S
C470        C474   1.540       .  S
C470        C472   1.541       .  S
C470        H476   1.111       .  S
C471        H477   1.087       .  S
C471        C472   1.365       .  D
C472        C556   1.444       .  S
C473        H478   1.087       .  S
C473        C474   1.363       .  D
C474        C545   1.443       .  S
In479       O481   2.257       .  S
In479       O482   2.252       .  S
In479       O490   2.253       .  S
In479       O484   2.267       .  S
In479       O486   2.258       .  S
In479       O487   2.253       .  S
In479       O491   2.256       .  S
C480        O488   1.259       .  A
C480        C569   1.435       .  S
O481        C489   1.259       .  A
O482        C489   1.258       .  A
C483        O490   1.258       .  A
C483        O484   1.260       .  A
C483        C589   1.478       .  S
C485        O487   1.260       .  A
C485        O491   1.260       .  A
C485        C538   1.475       .  S
C489        C533   1.437       .  S
In492       O494   2.245       .  S
In492       O503   2.258       .  S
In492       O497   2.262       .  S
In492       O504   2.266       .  S
C493        O499   1.259       .  A
C493        O501   1.258       .  A
C493        C613   1.435       .  S
O495        C502   1.260       .  A
C496        O503   1.259       .  A
C496        O497   1.260       .  A
C496        C581   1.479       .  S
C498        O504   1.259       .  A
C502        C548   1.437       .  S
C505        C506   1.533       .  S
C505        C511   1.531       .  S
C505        C509   1.536       .  S
C505        C648   1.468       .  S
C506        H513   1.087       .  S
C506        C507   1.365       .  D
C507        C508   1.540       .  S
C507        C532   1.444       .  S
C508        C512   1.538       .  S
C508        C510   1.536       .  S
C508        H514   1.112       .  S
C509        H515   1.086       .  S
C509        C510   1.365       .  D
C510        C549   1.441       .  S
C511        H516   1.087       .  S
C511        C512   1.362       .  D
C512        C564   1.442       .  S
C517        C518   1.534       .  S
C517        C523   1.534       .  S
C517        C521   1.535       .  S
C517        C593   1.471       .  S
C518        H525   1.086       .  S
C518        C519   1.363       .  D
C519        C520   1.536       .  S
C519        C544   1.440       .  S
C520        C524   1.538       .  S
C520        C522   1.539       .  S
C520        H526   1.112       .  S
C521        H527   1.086       .  S
C521        C522   1.366       .  D
C522        C529   1.444       .  S
C523        H528   1.086       .  S
C523        C524   1.364       .  D
C524        C536   1.444       .  S
C529        C530   1.207       .  T
C530        C531   1.415   1_565  S
C531        C532   1.207       .  T
C534        C535   1.415       .  S
C535        C536   1.207       .  T
C537        C538   1.344       .  D
C538        H540   1.086       .  S
C541        C542   1.207       .  T
C543        C544   1.205       .  T
C545        C546   1.207       .  T
C546        C547   1.414       .  S
C547        C548   1.207       .  T
C549        C550   1.205       .  T
C551        C552   1.207       .  T
C553        C554   1.207       .  T
C554        C555   1.414   1_545  S
C555        C556   1.207       .  T
C557        C558   1.206       .  T
C558        C559   1.413       .  S
C559        C560   1.206       .  T
C561        C562   1.206       .  T
C562        C563   1.413       .  S
C563        C564   1.206       .  T
C565        H567   1.086       .  S
C565        C566   1.344   1_655  D
C569        C570   1.206       .  T
C570        C571   1.412       .  S
C571        C572   1.206       .  T
C573        C574   1.205       .  T
C574        C575   1.411       .  S
C575        C576   1.205       .  T
C577        C578   1.206       .  T
C578        C579   1.412       .  S
C579        C580   1.206       .  T
C581        H583   1.087       .  S
C581        C582   1.345       .  D
C582        H584   1.087       .  S
C585        C586   1.206       .  T
C586        C587   1.412       .  S
C587        C588   1.206       .  T
C589        H591   1.086       .  S
C589        C590   1.344       .  D
C590        H592   1.086       .  S
C593        C594   1.207       .  T
C594        C595   1.414       .  S
C595        C596   1.207       .  T
C597        C598   1.206       .  T
C598        C599   1.412       .  S
C599        C600   1.206       .  T
C601        H603   1.086       .  S
C601        C602   1.345       .  D
C602        H604   1.086       .  S
C605        C606   1.205       .  T
C606        C607   1.411       .  S
C607        C608   1.205       .  T
C609        C610   1.205       .  T
C610        C611   1.411       .  S
C611        C612   1.205       .  T
C613        C614   1.205       .  T
C614        C615   1.412       .  S
C615        C616   1.206       .  T
C617        C618   1.204       .  T
C618        C619   1.410       .  S
C619        C620   1.204       .  T
C621        C622   1.206       .  T
C622        C623   1.413       .  S
C623        C624   1.206       .  T
C625        C626   1.206       .  T
C626        C627   1.412       .  S
C627        C628   1.206       .  T
C629        H631   1.086       .  S
C629        C630   1.345       .  D
C630        H632   1.086       .  S
C633        C634   1.208       .  T
C634        C635   1.415       .  S
C635        C636   1.208       .  T
C637        C638   1.206       .  T
C638        C639   1.412       .  S
C639        C640   1.206       .  T
C641        H643   1.087       .  S
C641        C642   1.344       .  D
C642        H644   1.087       .  S
C645        C646   1.206       .  T
C646        C647   1.412       .  S
C647        C648   1.206       .  T
C649        C650   1.206       .  T
C650        C651   1.412       .  S
C651        C652   1.206       .  T
C653        H655   1.087       .  S
C653        C654   1.344       .  D
C654        H656   1.086       .  S
