geometry optimzed in LAMMPS
_audit_creation_date              2020-12-01 
_audit_creation_method            'lammps2cif' 
_symmetry_space_group_name_H-M    'P1' 
_symmetry_Int_Tables_number       1 
_symmetry_cell_setting            triclinic 
loop_ 
_symmetry_equiv_pos_as_xyz 
  x,y,z 
_cell_length_a                    51.67260585 
_cell_length_b                    51.13899584964917 
_cell_length_c                    26.626103323878333 
_cell_angle_alpha                 90.72440481856205 
_cell_angle_beta                  89.278491092528 
_cell_angle_gamma                 122.76550218681594 
loop_ 
_atom_site_label 
_atom_site_type_symbol 
_atom_site_fract_x 
_atom_site_fract_y 
_atom_site_fract_z 
_atom_site_charge 
C1          C  0.32730990  0.66232897  0.07180135    -0.02200
C2          C  0.32155515  0.65345210  0.00403736    -0.02200
C3          C  0.28016995  0.70669698  0.24641793     0.30300
C4          C  0.27971067  0.70338580  0.35282349     0.30300
C5          C  0.31098753  0.72220443  0.27433664    -0.05900
C6          C  0.26712858  0.72387383  0.27528674    -0.06700
C7          C  0.25991402  0.67435547  0.27070469    -0.06600
C8          C  0.31096425  0.71840264  0.32571482    -0.05900
C9          C  0.26663262  0.72211898  0.32931367    -0.06700
C10         C  0.26002333  0.67276058  0.32287798    -0.06600
C11         C  0.34105360  0.73843634  0.34073259    -0.32000
N12         N  0.35871622  0.75582751  0.30163399     0.14500
C13         C  0.33937419  0.74839063  0.26307260    -0.32000
H14         H  0.34618992  0.76119123  0.22881752     0.16500
C15         C  0.25052741  0.73504964  0.34609960    -0.30900
N16         N  0.24206882  0.74498249  0.30576011     0.13300
C17         C  0.25236446  0.73855233  0.26287942    -0.30900
C18         C  0.24131975  0.64184177  0.33443693    -0.31200
N19         N  0.23291420  0.62417117  0.29216189     0.13800
H20         H  0.23731996  0.63216916  0.37116455     0.16400
C21         C  0.24052800  0.64417937  0.25339871    -0.31200
H22         H  0.23615352  0.63724009  0.21434228     0.16400
H23         H  0.24812352  0.74298415  0.22519874     0.16400
H24         H  0.35043697  0.73745355  0.37584148     0.16500
H25         H  0.24419931  0.73591409  0.38469875     0.16400
C26         C  0.28861754  0.57513506  0.23204981     0.30300
C27         C  0.29086217  0.57783155  0.33712285     0.30300
C28         C  0.26504930  0.58061539  0.25982130    -0.05900
C29         C  0.28247768  0.54581299  0.25898850    -0.06700
C30         C  0.31958066  0.59945903  0.25606933    -0.06600
C31         C  0.26646891  0.58173304  0.31199779    -0.05900
C32         C  0.28340062  0.54696604  0.31223960    -0.06700
C33         C  0.32028667  0.60179331  0.30838340    -0.06600
C34         C  0.24751733  0.59105616  0.32863044    -0.32000
N35         N  0.23601418  0.59820008  0.28961933     0.14500
C36         C  0.24466553  0.58949807  0.24760814    -0.32000
H37         H  0.24010649  0.59419949  0.21070920     0.16500
C38         C  0.27278213  0.51728373  0.32809033    -0.30900
N39         N  0.26630303  0.49879867  0.28682525     0.13300
C40         C  0.27240713  0.51601689  0.24476711    -0.30900
C41         C  0.35082901  0.61851378  0.32154042    -0.31200
N42         N  0.36872633  0.62418070  0.28029074     0.13800
H43         H  0.35955643  0.62752030  0.35842203     0.16400
C44         C  0.34976014  0.61160166  0.24121875    -0.31200
H45         H  0.35865325  0.61316961  0.20420378     0.16400
H46         H  0.26782231  0.50692487  0.20675111     0.16400
H47         H  0.24606260  0.59695379  0.36676247     0.16500
H48         H  0.26839268  0.50929012  0.36654469     0.16400
C49         C  0.42594986  0.72385989  0.33321271     0.30300
C50         C  0.42935328  0.72873697  0.22569980     0.30300
C51         C  0.41565999  0.74306620  0.30903308    -0.05900
C52         C  0.45935074  0.74377384  0.30901163    -0.06700
C53         C  0.41701213  0.69571899  0.30166010    -0.06600
C54         C  0.41429086  0.74368331  0.25721006    -0.05900
C55         C  0.46117835  0.74623757  0.25409525    -0.06700
C56         C  0.41686039  0.69679930  0.24997666    -0.06600
C57         C  0.39878828  0.75876788  0.24991918    -0.32000
N58         N  0.38951436  0.76445498  0.29450849     0.14500
C59         C  0.40397784  0.75898863  0.33043858    -0.32000
H60         H  0.40059289  0.76015528  0.37037757     0.16500
C61         C  0.49174372  0.76019356  0.24171918    -0.30900
N62         N  0.50833834  0.76735899  0.28484714     0.13300
C63         C  0.48908462  0.75811392  0.32544025    -0.30900
C64         C  0.40961505  0.66757351  0.23522019    -0.31200
N65         N  0.39999902  0.64856051  0.27604597     0.13800
H66         H  0.40667860  0.65944830  0.19694764     0.16400
C67         C  0.41201298  0.66783157  0.31552376    -0.31200
H68         H  0.41011420  0.66028360  0.35391839     0.16400
H69         H  0.49627234  0.76034881  0.36405349     0.16400
H70         H  0.39072717  0.76202601  0.21536041     0.16500
H71         H  0.50115048  0.76346958  0.20409031     0.16400
N72         N  0.82436992  0.75472832  0.32047558    -0.27000
N73         N  0.85036352  0.78171983  0.32888169    -0.34900
C74         C  0.84497620  0.80462269  0.32578590     0.01300
C75         C  0.81413925  0.79149439  0.31501467     0.07400
C76         C  0.80180115  0.75982997  0.31189346    -0.05700
H77         H  0.86224916  0.82904577  0.33133591     0.08000
H78         H  0.77809129  0.74175655  0.30447630     0.09200
Cu79       Cu  0.89226088  0.78649247  0.34361478     0.44200
Cu80       Cu  0.82018497  0.71179538  0.32292507     0.42000
Cu81       Cu  0.88748240  0.71321375  0.35903159     0.43900
N82         N  0.93055980  0.78313667  0.34930910    -0.34400
N83         N  0.92866842  0.75646839  0.35484773    -0.28600
C84         C  0.95712099  0.76170223  0.35186768    -0.04700
C85         C  0.97796177  0.79309843  0.34395385     0.07500
C86         C  0.96033822  0.80602919  0.34282919     0.01300
H87         H  0.96209003  0.74371566  0.35325200     0.08900
H88         H  0.96837515  0.83004063  0.33548811     0.08000
N89         N  0.84475014  0.67206438  0.34926088    -0.35800
N90         N  0.82020497  0.67142681  0.33383749    -0.28000
C91         C  0.79694490  0.64155693  0.32726006    -0.03300
C92         C  0.80723451  0.62234780  0.33943420     0.05400
C93         C  0.83767113  0.64267182  0.35342348     0.03400
H94         H  0.77436625  0.63437350  0.31369344     0.08600
H95         H  0.85372101  0.63651217  0.36481507     0.07400
N96         N  0.16991652  0.92516350  0.28657548    -0.27000
N97         N  0.14521609  0.92606175  0.29600194    -0.34900
C98         C  0.15329827  0.95588134  0.29722077     0.01300
C99         C  0.18462390  0.97476532  0.28823145     0.07400
C100        C  0.19441799  0.95450445  0.28156371    -0.05700
H101        H  0.13756913  0.96324379  0.30500574     0.08000
H102        H  0.21772005  0.96063350  0.27455338     0.09200
Cu103      Cu  0.10170543  0.88682713  0.30845131     0.44200
Cu104      Cu  0.16912076  0.88390432  0.28411497     0.42000
Cu105      Cu  0.09534626  0.81276328  0.31198565     0.43900
N106        N  0.06040278  0.84476637  0.31985891    -0.34400
N107        N  0.05796855  0.81767427  0.32142402    -0.28600
C108        C  0.02833371  0.79518449  0.33029397    -0.04700
C109        C  0.01136138  0.80879122  0.33447719     0.07500
C110        C  0.03244994  0.84023579  0.32748347     0.01300
H111        H  0.01979732  0.77073194  0.33348196     0.08900
H112        H  0.02790236  0.85855024  0.32820278     0.08000
N113        N  0.13646116  0.81451126  0.30219538    -0.35800
N114        N  0.16302937  0.84025709  0.29093913    -0.28000
C115        C  0.18509240  0.83385107  0.28871576    -0.03300
C116        C  0.17204496  0.80267472  0.29961895     0.05400
C117        C  0.14109436  0.79116328  0.30784077     0.03400
H118        H  0.20913635  0.85088427  0.28106343     0.08600
H119        H  0.12339450  0.76773609  0.31862042     0.07400
N120        N  0.25363395  0.16999347  0.30629683    -0.27000
N121        N  0.22636774  0.14357316  0.30468215    -0.34900
C122        C  0.20442791  0.14995325  0.30089788     0.01300
C123        C  0.21843529  0.18185961  0.29944782     0.07400
C124        C  0.24966815  0.19389844  0.30282737    -0.05700
H125        H  0.18005422  0.13254504  0.29832601     0.08000
H126        H  0.26812682  0.21818981  0.30295908     0.09200
Cu127      Cu  0.21945515  0.09959057  0.30364721     0.44200
Cu128      Cu  0.29496831  0.17212455  0.31225559     0.42000
Cu129      Cu  0.28736717  0.09815567  0.28636364     0.43900
N130        N  0.21830700  0.05854807  0.29489836    -0.34400
N131        N  0.24336579  0.05800586  0.28770399    -0.28600
C132        C  0.23528149  0.02822277  0.28357149    -0.04700
C133        C  0.20359055  0.00910600  0.28838519     0.07500
C134        C  0.19359681  0.02915525  0.29546480     0.01300
H135        H  0.25134873  0.02103525  0.27829587     0.08900
H136        H  0.17013661  0.02287740  0.30108288     0.08000
N137        N  0.32922679  0.14021759  0.29589379    -0.35800
N138        N  0.33214650  0.16663852  0.30947305    -0.28000
C139        C  0.36203175  0.18785313  0.31946095    -0.03300
C140        C  0.37884732  0.17426169  0.31094451     0.05400
C141        C  0.35713823  0.14422135  0.29526282     0.03400
H142        H  0.37064969  0.21112227  0.33329212     0.08600
H143        H  0.36117367  0.12607831  0.28580134     0.07400
N144        N  0.19276400  0.23532540  0.28403332    -0.27000
N145        N  0.16665038  0.20941479  0.29659586    -0.34900
C146        C  0.17192461  0.18671284  0.30338424     0.01300
C147        C  0.20284048  0.19879909  0.29526038     0.07400
C148        C  0.21544451  0.22971109  0.28313339    -0.05700
H149        H  0.15453210  0.16321755  0.31437525     0.08000
H150        H  0.23930898  0.24687261  0.27449431     0.09200
Cu151      Cu  0.12469491  0.20515614  0.30647709     0.44200
Cu152      Cu  0.19667812  0.27759560  0.27152933     0.42000
Cu153      Cu  0.12846688  0.27643350  0.30914526     0.43900
N154        N  0.08596315  0.20735853  0.31316215    -0.34400
N155        N  0.08759318  0.23402677  0.31369311    -0.28600
C156        C  0.05904702  0.22843827  0.31490631    -0.04700
C157        C  0.03842027  0.19663843  0.31536220     0.07500
C158        C  0.05619748  0.18390175  0.31446474     0.01300
H159        H  0.05378391  0.24623376  0.31458380     0.08900
H160        H  0.04815135  0.15948424  0.31340630     0.08000
N161        N  0.17042794  0.31644101  0.29523538    -0.35800
N162        N  0.19484761  0.31731129  0.27736921    -0.28000
C163        C  0.21740278  0.34724124  0.26935026    -0.03300
C164        C  0.20666177  0.36595329  0.28383980     0.05400
C165        C  0.17691282  0.34548114  0.30042820     0.03400
H166        H  0.24000696  0.35479346  0.25469339     0.08600
H167        H  0.16098165  0.35122413  0.31525947     0.07400
N168        N  0.95738339  0.16978244  0.31367030    -0.27000
N169        N  0.95544267  0.14316604  0.31991489    -0.34900
C170        C  0.98391810  0.14851884  0.32057684     0.01300
C171        C  0.00474949  0.18005832  0.31501069     0.07400
C172        C  0.98720904  0.19286986  0.31067059    -0.05700
H173        H  0.98901357  0.13083215  0.32600900     0.08000
H174        H  0.99544972  0.21718773  0.30634408     0.09200
Cu175      Cu  0.91461325  0.10109656  0.33086085     0.44200
Cu176      Cu  0.91967318  0.17390430  0.31211807     0.42000
Cu177      Cu  0.84654762  0.10372561  0.34195779     0.43900
N178        N  0.87109158  0.06210134  0.34100309    -0.34400
N179        N  0.84601685  0.06293086  0.34467318    -0.28600
C180        C  0.82128685  0.03364080  0.34658110    -0.04700
C181        C  0.83139467  0.01352632  0.34391108     0.07500
C182        C  0.86308125  0.03234512  0.34071460     0.01300
H183        H  0.79769557  0.02749224  0.34774948     0.08900
H184        H  0.87908227  0.02501574  0.33620968     0.08000
N185        N  0.85245572  0.14684917  0.33273181    -0.35800
N186        N  0.87883178  0.17217737  0.31957815    -0.28000
C187        C  0.87466452  0.19582333  0.31512765    -0.03300
C188        C  0.84426939  0.18497051  0.32673507     0.05400
C189        C  0.83093972  0.15382555  0.33781418     0.03400
H190        H  0.89254964  0.21926591  0.30475016     0.08600
H191        H  0.80734384  0.13743950  0.34910038     0.07400
N192        N  0.76224395  0.81917845  0.30282328    -0.27000
N193        N  0.78903738  0.84562698  0.30958876    -0.34900
C194        C  0.81124941  0.83969429  0.31381192     0.01300
C195        C  0.79807701  0.80799864  0.30979035     0.07400
C196        C  0.76691135  0.79561158  0.30272179    -0.05700
H197        H  0.83521119  0.85725395  0.32058352     0.08000
H198        H  0.74890740  0.77127572  0.29894315     0.09200
Cu199      Cu  0.79538028  0.88910181  0.31695231     0.44200
Cu200      Cu  0.72070094  0.81704617  0.29688525     0.42000
Cu201      Cu  0.72915000  0.89199234  0.32520934     0.43900
N202        N  0.79755218  0.93036545  0.32850157    -0.34400
N203        N  0.77256042  0.93129433  0.33151912    -0.28600
C204        C  0.78065736  0.96086590  0.33820623    -0.04700
C205        C  0.81239884  0.97947212  0.33971631     0.07500
C206        C  0.82242348  0.95940777  0.33347213     0.01300
H207        H  0.76461717  0.96823362  0.34104311     0.08900
H208        H  0.84597698  0.96545627  0.33192511     0.08000
N209        N  0.68788599  0.85102435  0.31203487    -0.35800
N210        N  0.68448954  0.82434922  0.29861146    -0.28000
C211        C  0.65449677  0.80367691  0.28890613    -0.03300
C212        C  0.63835013  0.81796065  0.29756143     0.05400
C213        C  0.66037166  0.84785385  0.31256088     0.03400
H214        H  0.64513340  0.77998011  0.27656183     0.08600
H215        H  0.65676948  0.86617671  0.32296173     0.07400
C216        C  0.67665601  0.31732019  0.12088453    -0.02200
C217        C  0.67644913  0.31467014  0.05309592    -0.02200
C218        C  0.58430755  0.25794075  0.38184082     0.30300
C219        C  0.58503920  0.25873176  0.27701961     0.30300
C220        C  0.60536034  0.24997574  0.35415047    -0.05900
C221        C  0.55361140  0.23181044  0.35693133    -0.06700
C222        C  0.58554601  0.28556387  0.35609994    -0.06600
C223        C  0.60889100  0.25439618  0.30358196    -0.05900
C224        C  0.55413264  0.23198505  0.30181663    -0.06700
C225        C  0.58771791  0.28682072  0.30436880    -0.06600
C226        C  0.62985147  0.24660831  0.28944777    -0.32000
N227        N  0.63620206  0.23419863  0.32851707     0.14500
C228        C  0.61903230  0.23394587  0.36760366    -0.32000
H229        H  0.61833716  0.22499083  0.40452965     0.16500
C230        C  0.52461563  0.22216481  0.28737246    -0.30900
N231        N  0.50661586  0.21620588  0.32848835     0.13300
C232        C  0.52389003  0.22271377  0.37017547    -0.30900
C233        C  0.59576057  0.31625852  0.29202725    -0.31200
N234        N  0.60315207  0.33437160  0.33404053     0.13800
H235        H  0.60151634  0.32549568  0.25486948     0.16400
C236        C  0.59216586  0.31430355  0.37322022    -0.31200
H237        H  0.59615865  0.32148135  0.41215164     0.16400
H238        H  0.51628464  0.22441357  0.40741250     0.16400
H239        H  0.64125364  0.25135410  0.25386334     0.16500
H240        H  0.51768682  0.22293720  0.24950808     0.16400
C241        C  0.74289332  0.28969947  0.28829670     0.30300
C242        C  0.74147586  0.28612798  0.39445063     0.30300
C243        C  0.71265665  0.26586539  0.31394599    -0.05900
C244        C  0.76138064  0.27653215  0.31194288    -0.06700
C245        C  0.76003872  0.31993116  0.31776478    -0.06600
C246        C  0.71067971  0.26453011  0.36551374    -0.05900
C247        C  0.76070835  0.27476517  0.36651674    -0.06700
C248        C  0.75738254  0.31919515  0.36938552    -0.06600
C249        C  0.67999431  0.24038151  0.37427856    -0.32000
N250        N  0.66315254  0.23312419  0.33157609     0.14500
C251        C  0.68414966  0.24475209  0.29420105    -0.32000
H252        H  0.67861374  0.24250016  0.25474469     0.16500
C253        C  0.77503472  0.25968774  0.37890496    -0.30900
N254        N  0.78474517  0.25282770  0.33581415     0.13300
C255        C  0.77673379  0.26294690  0.29533049    -0.30900
C256        C  0.77136886  0.35074958  0.38231217    -0.31200
N257        N  0.77852170  0.36872203  0.34054975     0.13800
H258        H  0.77375191  0.36020994  0.41944805     0.16400
C259        C  0.77567085  0.35020267  0.30168731    -0.31200
H260        H  0.77878033  0.35698878  0.26268695     0.16400
H261        H  0.78082823  0.25946322  0.25663493     0.16400
H262        H  0.66933732  0.23108543  0.41017817     0.16500
H263        H  0.77728403  0.25310449  0.41629119     0.16400
C264        C  0.71214493  0.40697897  0.28434071     0.30300
C265        C  0.71320278  0.40833329  0.39131999     0.30300
C266        C  0.73229286  0.39759647  0.31084911    -0.05900
C267        C  0.72439777  0.43937352  0.31043836    -0.06700
C268        C  0.68151962  0.38805163  0.31217184    -0.06600
C269        C  0.73549537  0.40177902  0.36225938    -0.05900
C270        C  0.72492445  0.44011675  0.36475707    -0.06700
C271        C  0.68130640  0.38920779  0.36439761    -0.06600
C272        C  0.76247780  0.40294981  0.37384966    -0.32000
N273        N  0.76980986  0.39064037  0.33511618     0.14500
C274        C  0.75258756  0.38931521  0.29592528    -0.32000
H275        H  0.75188607  0.37882766  0.26051006     0.16500
C276        C  0.73843737  0.47089559  0.37848591    -0.30900
N277        N  0.74561665  0.48842960  0.33616140     0.13300
C278        C  0.73708671  0.46951560  0.29494075    -0.30900
C279        C  0.65010401  0.37554353  0.37766813    -0.31200
N280        N  0.63207025  0.36330341  0.33614412     0.13800
H281        H  0.64067196  0.37012116  0.41490526     0.16400
C282        C  0.65169979  0.37297440  0.29682129    -0.31200
H283        H  0.64440323  0.36555727  0.25939254     0.16400
H284        H  0.74045369  0.47729035  0.25641668     0.16400
H285        H  0.77284212  0.40745978  0.41057133     0.16500
H286        H  0.74332262  0.48005247  0.41644693     0.16400
C287        C  0.69576530  0.27222222  0.51885192    -0.01600
C288        C  0.70489780  0.30434409  0.53070594     0.08100
C289        C  0.73775381  0.32509160  0.51618358    -0.01700
C290        C  0.75284847  0.31546184  0.48115872    -0.01700
C291        C  0.73679930  0.28756191  0.45413180     0.08300
C292        C  0.71163484  0.26443800  0.48189445    -0.01900
Br293      Br  0.70417187  0.22318654  0.47599762    -0.00400
Br294      Br  0.66300409  0.23705589  0.55167323    -0.00500
Br295      Br  0.79709373  0.33429609  0.47963111    -0.00500
Br296      Br  0.76799836  0.36492430  0.54456340    -0.00400
C297        C  0.65287955  0.29942401  0.46795806    -0.01600
C298        C  0.64731658  0.29059655  0.51819988     0.08100
C299        C  0.61544371  0.26223731  0.52062214    -0.01700
C300        C  0.59317458  0.25268358  0.47940635    -0.01700
C301        C  0.60091893  0.26989274  0.43464971     0.08300
C302        C  0.63142840  0.29653305  0.43407041    -0.01900
Br303      Br  0.65172051  0.31936160  0.37464069    -0.00400
Br304      Br  0.66933798  0.28067488  0.43309920    -0.00500
Br305      Br  0.55246434  0.21506986  0.48111702    -0.00500
Br306      Br  0.58474171  0.25135054  0.07722445    -0.00400
C307        C  0.72473464  0.38339528  0.46962926    -0.01600
C308        C  0.71024079  0.39828350  0.45026061     0.08100
C309        C  0.68335854  0.38865562  0.48002499    -0.01700
C310        C  0.66993707  0.36061508  0.51154869    -0.01700
C311        C  0.68902530  0.34940512  0.53273765     0.08300
C312        C  0.71957579  0.37364211  0.52044964    -0.01900
Br313      Br  0.73876513  0.40983312  0.56379973    -0.00400
Br314      Br  0.71843998  0.35006487  0.43120674    -0.00500
Br315      Br  0.64116005  0.35868143  0.00675718    -0.00500
Br316      Br  0.66833714  0.41593337  0.48352985    -0.00400
C317        C  0.71699809  0.29586512  0.15082559    -0.01600
C318        C  0.69579933  0.30710732  0.15848799     0.08100
C319        C  0.69285271  0.31186670  0.21166072    -0.01700
C320        C  0.70960557  0.30838227  0.24947232    -0.01700
C321        C  0.73037718  0.29847971  0.24062586     0.08300
C322        C  0.73610490  0.29585289  0.19029802    -0.01900
Br323      Br  0.77161878  0.29343465  0.17658374    -0.00400
Br324      Br  0.71378604  0.26481969  0.10508908    -0.00500
Br325      Br  0.70258224  0.31737738  0.31670821    -0.00500
Br326      Br  0.66497519  0.32341561  0.23921530    -0.00400
C327        C  0.62922277  0.26224081  0.16204312    -0.01600
C328        C  0.64092811  0.29372082  0.14270892     0.08100
C329        C  0.61887752  0.30264069  0.15357311    -0.01700
C330        C  0.59420695  0.28628336  0.18967891    -0.01700
C331        C  0.59095578  0.26184277  0.21809782     0.08300
C332        C  0.60241378  0.24591936  0.19363022    -0.01900
Br333      Br  0.58130421  0.20173191  0.20733637    -0.00400
Br334      Br  0.64729274  0.23822632  0.15290581    -0.00500
Br335      Br  0.55773196  0.28811091  0.18845698    -0.00500
Br336      Br  0.61463438  0.33066027  0.11394625    -0.00400
C337        C  0.68349803  0.39031505  0.19495640    -0.01600
C338        C  0.71001473  0.40102960  0.22456991     0.08100
C339        C  0.73271654  0.39944914  0.19810199    -0.01700
C340        C  0.72462498  0.37434366  0.16353700    -0.01700
C341        C  0.69368411  0.35518645  0.14129803     0.08300
C342        C  0.67884103  0.37229571  0.14959390    -0.01900
Br343      Br  0.68545519  0.40125034  0.09860537    -0.00400
Br344      Br  0.66413679  0.41407954  0.20260826    -0.00500
Br345      Br  0.75830410  0.36875532  0.15672500    -0.00500
Br346      Br  0.77457441  0.43486685  0.20458838    -0.00400
C347        C  0.84254137  0.23100095  0.35587246    -0.01600
C348        C  0.82925645  0.20282658  0.32832882     0.08100
C349        C  0.80114025  0.19143013  0.30313471    -0.01700
C350        C  0.78590999  0.20732874  0.30728054    -0.01700
C351        C  0.79973000  0.23594100  0.33327631     0.08300
C352        C  0.82830252  0.24794539  0.35682478    -0.01900
Br353      Br  0.84844005  0.28827682  0.38886580    -0.00400
Br354      Br  0.87909391  0.24572433  0.39535478    -0.00500
Br355      Br  0.74520376  0.18896190  0.27987803    -0.00500
Br356      Br  0.78406994  0.15507840  0.26027724    -0.00400
C357        C  0.42086935  0.16880159  0.34511123    -0.01600
C358        C  0.41215095  0.18723086  0.32032487     0.08100
C359        C  0.43552918  0.21711220  0.30300481    -0.01700
C360        C  0.46685412  0.22744062  0.30845122    -0.01700
C361        C  0.47501065  0.20741361  0.32806349     0.08300
C362        C  0.45198772  0.17838498  0.34712995    -0.01900
Br363      Br  0.46332368  0.15123852  0.37449165    -0.00400
Br364      Br  0.39085260  0.13133164  0.38002800    -0.00500
Br365      Br  0.49883221  0.26951505  0.29167215    -0.00500
Br366      Br  0.42540509  0.24362063  0.26935353    -0.00400
C367        C  0.80346649  0.57333586  0.30998103    -0.01600
C368        C  0.79022609  0.58766743  0.33598084     0.08100
C369        C  0.76115445  0.56860817  0.35948036    -0.01700
C370        C  0.74602222  0.53588576  0.35765942    -0.01700
C371        C  0.76042453  0.52184496  0.33513391     0.08300
C372        C  0.78925718  0.54075958  0.31129767    -0.01900
Br373      Br  0.81013590  0.52219691  0.28261403    -0.00400
Br374      Br  0.83982388  0.59786733  0.26891360    -0.00500
Br375      Br  0.70479301  0.50990918  0.38398179    -0.00100
Br376      Br  0.74229857  0.58684410  0.39639212    -0.00400
C377        C  0.55158804  0.76330044  0.31225884    -0.01600
C378        C  0.54085333  0.77980188  0.28723197     0.08100
C379        C  0.56214549  0.80852204  0.26467510    -0.01700
C380        C  0.59392788  0.82065057  0.26687568    -0.01700
C381        C  0.60477507  0.80447797  0.29299332     0.08300
C382        C  0.58336418  0.77582322  0.31598964    -0.01900
Br383      Br  0.59708760  0.75413727  0.35544506    -0.00400
Br384      Br  0.52276732  0.72264862  0.33965963    -0.00500
Br385      Br  0.62208566  0.85879133  0.23171091    -0.00500
Br386      Br  0.54776775  0.83187365  0.23222770    -0.00400
C387        C  0.22197086  0.44674051  0.26580116    -0.01600
C388        C  0.25138330  0.46560332  0.28700429     0.08100
C389        C  0.26647624  0.45195225  0.30662021    -0.01700
C390        C  0.25226660  0.41941867  0.30496726    -0.01700
C391        C  0.22285372  0.40037641  0.28304404     0.08300
C392        C  0.20795421  0.41435672  0.26295991    -0.01900
Br393      Br  0.16893592  0.38981450  0.22893302    -0.00400
Br394      Br  0.20023419  0.46533020  0.24261867    -0.00500
Br395      Br  0.27282743  0.40141435  0.33525101    -0.00500
Br396      Br  0.30693713  0.47818659  0.33496698    -0.00400
C397        C  0.19549180  0.74399427  0.28004001    -0.01600
C398        C  0.22323928  0.75807544  0.30736361     0.08100
C399        C  0.23263621  0.78545596  0.33517498    -0.01700
C400        C  0.21469897  0.79866865  0.33532423    -0.01700
C401        C  0.18843473  0.78612976  0.30449002     0.08300
C402        C  0.17871123  0.75841398  0.27728757    -0.01900
Br403      Br  0.14338207  0.74079196  0.23387872    -0.00400
Br404      Br  0.17964765  0.70411189  0.24802997    -0.00500
Br405      Br  0.22517748  0.83279533  0.38057279    -0.00500
Br406      Br  0.27117635  0.80616907  0.37056345    -0.00400
C407        C  0.26992135  0.57927054  0.42720721    -0.01600
C408        C  0.29387807  0.58266381  0.39607366     0.08100
C409        C  0.32099715  0.59141794  0.42277176    -0.01700
C410        C  0.32609594  0.60566940  0.47152338    -0.01700
C411        C  0.30822706  0.61807585  0.48845500     0.08300
C412        C  0.27708228  0.59480167  0.47521601    -0.01900
Br413      Br  0.25314104  0.56083185  0.02640467    -0.00400
Br414      Br  0.22869404  0.54329296  0.41370096    -0.00500
Br415      Br  0.32996937  0.57979727  0.51850112    -0.00500
Br416      Br  0.34315328  0.57203542  0.40273787    -0.00400
C417        C  0.26176096  0.67187937  0.43680406    -0.01600
C418        C  0.28268076  0.69928166  0.41186818     0.08100
C419        C  0.30995325  0.71774336  0.43961991    -0.01700
C420        C  0.32116960  0.70420876  0.47335417    -0.01700
C421        C  0.30405356  0.67112723  0.48449521     0.08300
C422        C  0.27156954  0.65619205  0.46876847    -0.01900
Br423      Br  0.23309313  0.61045752  0.98529351    -0.00400
Br424      Br  0.21977968  0.66197861  0.43598176    -0.00500
Br425      Br  0.35969226  0.73266182  0.50550307    -0.00500
Br426      Br  0.32698715  0.76201004  0.44060625    -0.00400
C427        C  0.36929929  0.69110479  0.37142061    -0.01600
C428        C  0.40201536  0.70744407  0.38021278     0.08100
C429        C  0.40888117  0.69955263  0.42641144    -0.01700
C430        C  0.38477104  0.67936541  0.46260472    -0.01700
C431        C  0.35330946  0.67228845  0.46129640     0.08300
C432        C  0.34657300  0.67439085  0.40949656    -0.01900
Br433      Br  0.30552592  0.64893556  0.38351714    -0.00400
Br434      Br  0.35301098  0.68581137  0.30383052    -0.00500
Br435      Br  0.39289015  0.65093897  0.99514805    -0.00500
Br436      Br  0.45087520  0.71052517  0.43361838    -0.00400
C437        C  0.26935828  0.58141039  0.14691002    -0.01600
C438        C  0.28971496  0.57726785  0.17296784     0.08100
C439        C  0.31641289  0.58676222  0.14576084    -0.01700
C440        C  0.33017270  0.61425588  0.11558400    -0.01700
C441        C  0.31304411  0.62816173  0.10029172     0.08300
C442        C  0.28026965  0.60735727  0.11397004    -0.01900
Br443      Br  0.24705736  0.61244324  0.10012481    -0.00400
Br444      Br  0.22697803  0.54615966  0.14929207    -0.00500
Br445      Br  0.37287401  0.63020711  0.10589654    -0.00500
Br446      Br  0.33237261  0.56014463  0.15033622    -0.00400
C447        C  0.31284929  0.68297697  0.15513835    -0.01600
C448        C  0.30636915  0.67600896  0.10325003     0.08100
C449        C  0.27974877  0.68139748  0.09980209    -0.01700
C450        C  0.26745476  0.68969231  0.14524821    -0.01700
C451        C  0.28724230  0.70481719  0.18773022     0.08300
C452        C  0.31586137  0.71029091  0.17436623    -0.01900
Br453      Br  0.33812619  0.74700367  0.13293654    -0.00400
Br454      Br  0.29458840  0.65023269  0.20303178    -0.00500
Br455      Br  0.22693740  0.68268184  0.14904912    -0.00500
Br456      Br  0.26154788  0.68738473  0.04378175    -0.00400
C457        C  0.42061727  0.70681416  0.12453444    -0.01600
C458        C  0.42071914  0.72616186  0.16597604     0.08100
C459        C  0.39740797  0.73098385  0.15451262    -0.01700
C460        C  0.36956033  0.70316610  0.14032788    -0.01700
C461        C  0.36526778  0.68934139  0.09208316     0.08300
C462        C  0.39730716  0.69650939  0.08241677    -0.01900
Br463      Br  0.42114271  0.72913012  0.03513093    -0.00400
Br464      Br  0.45341425  0.69988087  0.11955171    -0.00500
Br465      Br  0.36001223  0.67162769  0.18782259    -0.00500
Br466      Br  0.41171452  0.76985652  0.12099548    -0.00400
C467        C  0.32940926  0.66311652  0.57148497    -0.02200
C468        C  0.32377268  0.65580309  0.50366704    -0.02200
C469        C  0.27780084  0.70150093  0.74421854     0.30300
C470        C  0.27601863  0.69724927  0.85035620     0.30300
C471        C  0.30833567  0.71650115  0.77324963    -0.05900
C472        C  0.26488316  0.71858111  0.77262181    -0.06700
C473        C  0.25700176  0.66889014  0.76749877    -0.06600
C474        C  0.30762337  0.71198521  0.82458582    -0.05900
C475        C  0.26370543  0.71645625  0.82653131    -0.06700
C476        C  0.25642108  0.66691335  0.81970421    -0.06600
C477        C  0.33727141  0.73272460  0.84116781    -0.32000
N478        N  0.35522074  0.75117250  0.80317319     0.14500
C479        C  0.33637025  0.74370520  0.76395427    -0.32000
H480        H  0.34323255  0.75747033  0.73072841     0.16500
C481        C  0.24898337  0.73081176  0.84280441    -0.30900
N482        N  0.24210099  0.74179645  0.80200378     0.13300
C483        C  0.25195996  0.73474734  0.75947520    -0.30900
C484        C  0.23812721  0.63593054  0.83065617    -0.31200
N485        N  0.23083584  0.61861060  0.78832486     0.13800
H486        H  0.23407419  0.62596294  0.86709845     0.16400
C487        C  0.23855090  0.63872846  0.74960467    -0.31200
H488        H  0.23520308  0.63203997  0.71043478     0.16400
H489        H  0.24903743  0.74023915  0.72167587     0.16400
H490        H  0.34622691  0.73177075  0.87682525     0.16500
H491        H  0.24301860  0.73253780  0.88127557     0.16400
C492        C  0.29042406  0.57337333  0.73152863     0.30300
C493        C  0.29120868  0.57560189  0.83712841     0.30300
C494        C  0.26587624  0.57757883  0.75851012    -0.05900
C495        C  0.28510668  0.54415884  0.75885573    -0.06700
C496        C  0.32053903  0.59831858  0.75667853    -0.06600
C497        C  0.26639045  0.57829363  0.81082102    -0.05900
C498        C  0.28514130  0.54525426  0.81234973    -0.06700
C499        C  0.32067009  0.60029663  0.80906278    -0.06600
C500        C  0.24646838  0.58657011  0.82639044    -0.32000
N501        N  0.23525306  0.59351379  0.78653191     0.14500
C502        C  0.24541484  0.58602613  0.74516295    -0.32000
H503        H  0.24176211  0.59141712  0.70819930     0.16500
C504        C  0.27087535  0.51506730  0.82840820    -0.30900
N505        N  0.26405013  0.49602766  0.78784285     0.13300
C506        C  0.27268608  0.51358509  0.74545507    -0.30900
C507        C  0.35117642  0.61725398  0.82280440    -0.31200
N508        N  0.36945380  0.62358984  0.78189884     0.13800
H509        H  0.35960821  0.62606746  0.85996320     0.16400
C510        C  0.35089626  0.61124665  0.74229469    -0.31200
H511        H  0.36015189  0.61370213  0.70578796     0.16400
H512        H  0.26839932  0.50451079  0.70746486     0.16400
H513        H  0.24434400  0.59209112  0.86444833     0.16500
H514        H  0.26411157  0.50727230  0.86671216     0.16400
C515        C  0.42533426  0.72300795  0.83578890     0.30300
C516        C  0.42913614  0.72842927  0.72832246     0.30300
C517        C  0.41448220  0.74179622  0.81169809    -0.05900
C518        C  0.45895760  0.74348780  0.81169911    -0.06700
C519        C  0.41713261  0.69518759  0.80394744    -0.06600
C520        C  0.41331062  0.74257558  0.75986025    -0.05900
C521        C  0.46079299  0.74639085  0.75677761    -0.06700
C522        C  0.41713376  0.69645488  0.75224806    -0.06600
C523        C  0.39672325  0.75651455  0.75244255    -0.32000
N524        N  0.38646581  0.76114743  0.79690879     0.14500
C525        C  0.40125145  0.75630843  0.83308112    -0.32000
H526        H  0.39709601  0.75672462  0.87292274     0.16500
C527        C  0.49082231  0.75769609  0.74365387    -0.30900
N528        N  0.50746112  0.76321256  0.78618123     0.13300
C529        C  0.48857419  0.75492740  0.82723063    -0.30900
C530        C  0.41027205  0.66739368  0.73735933    -0.31200
N531        N  0.40062610  0.64823894  0.77804090     0.13800
H532        H  0.40768813  0.65946232  0.69897044     0.16400
C533        C  0.41226698  0.66733883  0.81775391    -0.31200
H534        H  0.41012689  0.65963102  0.85606133     0.16400
H535        H  0.49567068  0.75520929  0.86536281     0.16400
H536        H  0.38860178  0.75956547  0.71771039     0.16500
H537        H  0.49958720  0.75973344  0.70580641     0.16400
N538        N  0.82605195  0.74427912  0.80986430    -0.27000
N539        N  0.85190880  0.77195002  0.81450399    -0.34900
C540        C  0.84534419  0.79397727  0.81103096     0.01300
C541        C  0.81395000  0.77968773  0.80410767     0.07400
C542        C  0.80245269  0.74814332  0.80341159    -0.05700
H543        H  0.86221986  0.81866973  0.81434384     0.08000
H544        H  0.77861535  0.72933984  0.79968410     0.09200
Cu545      Cu  0.89555666  0.77979892  0.82691048     0.44200
Cu546      Cu  0.82340176  0.70217699  0.81463834     0.42000
Cu547      Cu  0.89525963  0.71078660  0.84574205     0.43900
N548        N  0.93598748  0.78009127  0.83468826    -0.34400
N549        N  0.93538202  0.75420875  0.84137714    -0.28600
C550        C  0.96430145  0.76069392  0.84110926    -0.04700
C551        C  0.98432182  0.79229012  0.83411539     0.07500
C552        C  0.96559791  0.80394981  0.83036088     0.01300
H553        H  0.97020917  0.74347358  0.84445918     0.08900
H554        H  0.97289798  0.82779945  0.82339340     0.08000
N555        N  0.85458329  0.66820138  0.83713634    -0.35800
N556        N  0.82833776  0.66461540  0.82350369    -0.28000
C557        C  0.80730710  0.63402576  0.81678209    -0.03300
C558        C  0.82105967  0.61770801  0.82707790     0.05400
C559        C  0.85095184  0.64021282  0.84010200     0.03400
H560        H  0.78389697  0.62441737  0.80472295     0.08600
H561        H  0.86898617  0.63655836  0.85012841     0.07400
N562        N  0.17656526  0.92917535  0.78580417    -0.27000
N563        N  0.15105056  0.92907494  0.79155205    -0.34900
C564        C  0.15765132  0.95814675  0.78503946     0.01300
C565        C  0.18883025  0.97752167  0.77490811     0.07400
C566        C  0.20010612  0.95836740  0.77583614    -0.05700
H567        H  0.14095249  0.96467253  0.78760791     0.08000
H568        H  0.22363328  0.96507324  0.76934766     0.09200
Cu569      Cu  0.10821748  0.88924413  0.80714901     0.44200
Cu570      Cu  0.17771868  0.88921240  0.78997032     0.42000
Cu571      Cu  0.10432353  0.81698743  0.81767981     0.43900
N572        N  0.06729848  0.84657744  0.81884313    -0.34400
N573        N  0.06583326  0.82005047  0.82266187    -0.28600
C574        C  0.03621840  0.79676967  0.82892279    -0.04700
C575        C  0.01816514  0.80925253  0.82907714     0.07500
C576        C  0.03866122  0.84087466  0.82255800     0.01300
H577        H  0.02841220  0.77252276  0.83260552     0.08900
H578        H  0.03318061  0.85846027  0.82031553     0.08000
N579        N  0.14575178  0.81997037  0.80684530    -0.35800
N580        N  0.17207610  0.84583343  0.79508942    -0.28000
C581        C  0.19394956  0.83934752  0.78933099    -0.03300
C582        C  0.18093298  0.80800967  0.79871820     0.05400
C583        C  0.15035261  0.79654554  0.80972807     0.03400
H584        H  0.21771338  0.85632819  0.77975546     0.08600
H585        H  0.13276712  0.77294616  0.81987879     0.07400
N586        N  0.24694055  0.16898273  0.77102192    -0.27000
N587        N  0.22043418  0.14201176  0.76589689    -0.34900
C588        C  0.19729190  0.14687147  0.76743374     0.01300
C589        C  0.20975891  0.17840296  0.77358104     0.07400
C590        C  0.24128132  0.19171827  0.77555423    -0.05700
H591        H  0.17315270  0.12871655  0.76464434     0.08000
H592        H  0.25881561  0.21609357  0.78075899     0.09200
Cu593      Cu  0.21650929  0.09947206  0.75876582     0.44200
Cu594      Cu  0.28971928  0.17366331  0.77327078     0.42000
Cu595      Cu  0.28769937  0.10199469  0.75649956     0.43900
N596        N  0.21839870  0.05988179  0.75858353    -0.34400
N597        N  0.24444299  0.06073836  0.75805070    -0.28600
C598        C  0.23793049  0.03153992  0.76235053    -0.04700
C599        C  0.20628761  0.01137322  0.76594334     0.07500
C600        C  0.19466386  0.03016122  0.76318628     0.01300
H601        H  0.25503425  0.02558940  0.76462553     0.08900
H602        H  0.17077600  0.02292016  0.76609125     0.08000
N603        N  0.32822803  0.14564924  0.76353055    -0.35800
N604        N  0.32909917  0.17164265  0.77214468    -0.28000
C605        C  0.35847359  0.19479937  0.78120201    -0.03300
C606        C  0.37704586  0.18288424  0.77785255     0.05400
C607        C  0.35697684  0.15171678  0.76591442     0.03400
H608        H  0.36561397  0.21829576  0.79155961     0.08600
H609        H  0.36266065  0.13431688  0.76165990     0.07400
N610        N  0.18255601  0.23086331  0.78485325    -0.27000
N611        N  0.15607763  0.20371838  0.78743933    -0.34900
C612        C  0.16157693  0.18085255  0.78349066     0.01300
C613        C  0.19304346  0.19431287  0.77841629     0.07400
C614        C  0.20558457  0.22603352  0.77949463    -0.05700
H615        H  0.14398477  0.15627733  0.78460156     0.08000
H616        H  0.22968030  0.24431525  0.77647285     0.09200
Cu617      Cu  0.11388102  0.19947915  0.79634247     0.44200
Cu618      Cu  0.18623001  0.27329386  0.78848752     0.42000
Cu619      Cu  0.11583415  0.27190663  0.80435899     0.43900
N620        N  0.07491302  0.20163233  0.80305685    -0.34400
N621        N  0.07554349  0.22784246  0.80519697    -0.28600
C622        C  0.04650089  0.22097112  0.80911193    -0.04700
C623        C  0.02671054  0.18895807  0.80981895     0.07500
C624        C  0.04549134  0.17745099  0.80589034     0.01300
H625        H  0.04032595  0.23805431  0.81200742     0.08900
H626        H  0.03835855  0.15328146  0.80534852     0.08000
N627        N  0.15937507  0.31267059  0.80108491    -0.35800
N628        N  0.18493090  0.31305953  0.79379770    -0.28000
C629        C  0.20886659  0.34273082  0.79028220    -0.03300
C630        C  0.19801443  0.36211955  0.79619319     0.05400
C631        C  0.16649995  0.34216600  0.80320508     0.03400
H632        H  0.23236973  0.34962091  0.78293657     0.08600
H633        H  0.14987410  0.34862941  0.80853527     0.07400
N634        N  0.94476162  0.15811840  0.82298432    -0.27000
N635        N  0.94456423  0.13221385  0.82590689    -0.34900
C636        C  0.97356245  0.13914593  0.82109932     0.01300
C637        C  0.99295969  0.17095433  0.81520645     0.07400
C638        C  0.97394572  0.18225858  0.81665445    -0.05700
H639        H  0.98003149  0.12227844  0.82245256     0.08000
H640        H  0.98076956  0.20624663  0.81343586     0.09200
Cu641      Cu  0.90518775  0.08866685  0.83776306     0.44200
Cu642      Cu  0.90544303  0.15958480  0.82775821     0.42000
Cu643      Cu  0.83541246  0.08679018  0.86159130     0.43900
N644        N  0.86290283  0.04792978  0.84982192    -0.34400
N645        N  0.83728239  0.04713274  0.85901339    -0.28600
C646        C  0.81367830  0.01725123  0.86205082    -0.04700
C647        C  0.82505958  0.99842469  0.85432009     0.07500
C648        C  0.85634576  0.01866715  0.84684825     0.01300
H649        H  0.78987729  0.00981877  0.86768769     0.08900
H650        H  0.87299627  0.01262590  0.83814910     0.08000
N651        N  0.83793183  0.12843708  0.85175286    -0.35800
N652        N  0.86305868  0.15458403  0.83706380    -0.28000
C653        C  0.85633131  0.17633137  0.83052419    -0.03300
C654        C  0.82554324  0.16340773  0.84232605     0.05400
C655        C  0.81472030  0.13304397  0.85577779     0.03400
H656        H  0.87262595  0.19973511  0.81770890     0.08600
H657        H  0.79149554  0.11541898  0.86709982     0.07400
N658        N  0.76004457  0.80550386  0.79979517    -0.27000
N659        N  0.78668676  0.83214616  0.80684025    -0.34900
C660        C  0.80939325  0.82678962  0.80802358     0.01300
C661        C  0.79685497  0.79532751  0.80183026     0.07400
C662        C  0.76543183  0.78241696  0.79664447    -0.05700
H663        H  0.83332082  0.84459163  0.81446161     0.08000
H664        H  0.74777117  0.75803574  0.79193725     0.09200
Cu665      Cu  0.79305696  0.87544114  0.81900590     0.44200
Cu666      Cu  0.71754122  0.80210901  0.79690140     0.42000
Cu667      Cu  0.72600812  0.87502800  0.83635712     0.43900
N668        N  0.79429116  0.91581698  0.83611350    -0.34400
N669        N  0.76872030  0.91527142  0.84346594    -0.28600
C670        C  0.77568302  0.94431699  0.85223772    -0.04700
C671        C  0.80732973  0.96424541  0.85031591     0.07500
C672        C  0.81845997  0.94538970  0.84009297     0.01300
H673        H  0.75888294  0.95050959  0.85798106     0.08900
H674        H  0.84223794  0.95267327  0.83474781     0.08000
N675        N  0.68467891  0.83538254  0.81800033    -0.35800
N676        N  0.68092314  0.80910045  0.80118420    -0.28000
C677        C  0.65097533  0.78955580  0.78911722    -0.03300
C678        C  0.63540915  0.80437693  0.79926974     0.05400
C679        C  0.65763255  0.83319551  0.81792292     0.03400
H680        H  0.64127141  0.76639399  0.77383168     0.08600
H681        H  0.65449409  0.85155429  0.83020670     0.07400
C682        C  0.67732064  0.31252230  0.62008397    -0.02200
C683        C  0.67941039  0.31332459  0.55287976    -0.02200
C684        C  0.58383182  0.27802056  0.88027240     0.30300
C685        C  0.58671537  0.27541435  0.77517795     0.30300
C686        C  0.59929324  0.26219942  0.85647465    -0.05900
C687        C  0.55205584  0.25629076  0.85358183    -0.06700
C688        C  0.59324890  0.30796158  0.85078455    -0.06600
C689        C  0.60445675  0.26470754  0.80564341    -0.05900
C690        C  0.55390348  0.25469563  0.79931101    -0.06700
C691        C  0.59665160  0.30699014  0.79929406    -0.06600
C692        C  0.61562550  0.24613453  0.79467785    -0.32000
N693        N  0.61494843  0.23024079  0.83548526     0.14500
C694        C  0.60224622  0.23806738  0.87277348    -0.32000
H695        H  0.59775748  0.22885432  0.91048046     0.16500
C696        C  0.52520215  0.24404136  0.78083285    -0.30900
N697        N  0.50597793  0.23961324  0.81959086     0.13300
C698        C  0.52224171  0.24838066  0.86320081    -0.30900
C699        C  0.61481045  0.33729927  0.78441985    -0.31200
N700        N  0.62369152  0.35706767  0.82438564     0.13800
H701        H  0.62577498  0.34391187  0.74841065     0.16400
C702        C  0.60753839  0.33914705  0.86457613    -0.31200
H703        H  0.61176928  0.34738240  0.90299865     0.16400
H704        H  0.51334195  0.25050249  0.89892748     0.16400
H705        H  0.62651194  0.24657150  0.76023905     0.16500
H706        H  0.51917582  0.24161167  0.74150838     0.16400
C707        C  0.71412243  0.25646546  0.79292334     0.30300
C708        C  0.71472488  0.25760339  0.89963059     0.30300
C709        C  0.68355291  0.23935550  0.82092135    -0.05900
C710        C  0.72677645  0.23805210  0.81862273    -0.06700
C711        C  0.73722762  0.28681918  0.81900848    -0.06600
C712        C  0.68284216  0.24093948  0.87253664    -0.05900
C713        C  0.72694608  0.23836781  0.87339161    -0.06700
C714        C  0.73632525  0.28901490  0.87064532    -0.06600
C715        C  0.65121424  0.22422121  0.88357716    -0.32000
N716        N  0.63461335  0.21892394  0.84112868     0.14500
C717        C  0.65398078  0.22282848  0.80337389    -0.32000
H718        H  0.64800760  0.21962111  0.76414415     0.16500
C719        C  0.74194990  0.22416695  0.88736998    -0.30900
N720        N  0.75135494  0.21612946  0.84507486     0.13300
C721        C  0.74257557  0.22467391  0.80364753    -0.30900
C722        C  0.75779159  0.32077452  0.87967274    -0.31200
N723        N  0.76757843  0.33713608  0.83588006     0.13800
H724        H  0.76432601  0.33221184  0.91560777     0.16400
C725        C  0.75830193  0.31555482  0.79928376    -0.31200
H726        H  0.76169099  0.32072995  0.75961170     0.16400
H727        H  0.74886992  0.22274483  0.76556127     0.16400
H728        H  0.64075473  0.21964618  0.92027529     0.16500
H729        H  0.74716200  0.22137355  0.92541433     0.16400
C730        C  0.73161110  0.40568073  0.77653010     0.30300
C731        C  0.73221538  0.40663317  0.88305022     0.30300
C732        C  0.74047454  0.38500979  0.80362884    -0.05900
C733        C  0.75407990  0.43788097  0.80226267    -0.06700
C734        C  0.70196389  0.39766254  0.80331593    -0.06600
C735        C  0.74472436  0.38908121  0.85479413    -0.05900
C736        C  0.75441752  0.43853382  0.85667005    -0.06700
C737        C  0.70175231  0.39810298  0.85560480    -0.06600
C738        C  0.76700198  0.38242260  0.86560566    -0.32000
N739        N  0.76772043  0.36474850  0.82815610     0.14500
C740        C  0.75296654  0.36802887  0.78924321    -0.32000
H741        H  0.74806200  0.35547641  0.75471779     0.16500
C742        C  0.76695087  0.46915494  0.87041461    -0.30900
N743        N  0.77369461  0.48664782  0.82824791     0.13300
C744        C  0.76514568  0.46774351  0.78724431    -0.30900
C745        C  0.67232251  0.39113281  0.86882028    -0.31200
N746        N  0.65448490  0.38337025  0.82723619     0.13800
H747        H  0.66251414  0.38567566  0.90580688     0.16400
C748        C  0.67382702  0.39096407  0.78773463    -0.31200
H749        H  0.66618481  0.38774534  0.74982943     0.16400
H750        H  0.76477352  0.47485701  0.74928662     0.16400
H751        H  0.77797699  0.38576456  0.90153109     0.16500
H752        H  0.76881312  0.47771318  0.90842655     0.16400
C753        C  0.67404894  0.26028906  0.02147002    -0.01600
C754        C  0.69195996  0.29420407  0.03232996     0.08100
C755        C  0.72428104  0.30661832  0.01834874    -0.01700
C756        C  0.73351464  0.29082046  0.98373029    -0.01700
C757        C  0.71224280  0.26306198  0.95913464     0.08300
C758        C  0.68521386  0.24558669  0.98807536    -0.01900
Br759      Br  0.66712143  0.20114185  0.98775324    -0.00400
Br760      Br  0.63138450  0.23186924  0.03686911    -0.00500
Br761      Br  0.77496989  0.29936424  0.98193512    -0.00500
Br762      Br  0.75901415  0.33981436  0.05249324    -0.00400
C763        C  0.65020768  0.30426539  0.96784361    -0.01600
C764        C  0.64337682  0.29859925  0.01929277     0.08100
C765        C  0.60893257  0.27926411  0.02389820    -0.01700
C766        C  0.58855122  0.27330003  0.98071859    -0.01700
C767        C  0.60037838  0.28791529  0.93368923     0.08300
C768        C  0.63291027  0.30803059  0.93312659    -0.01900
Br769      Br  0.65725003  0.32791579  0.87459895    -0.00400
Br770      Br  0.65762333  0.27753702  0.93338510    -0.00500
Br771      Br  0.54468029  0.24321730  0.98272838    -0.00500
Br772      Br  0.59864336  0.22961775  0.56860433    -0.00400
C773        C  0.73421598  0.37684134  0.96470807    -0.01600
C774        C  0.72682160  0.39742532  0.94263345     0.08100
C775        C  0.70194835  0.39503862  0.97082904    -0.01700
C776        C  0.68280086  0.36835165  0.00394327    -0.01700
C777        C  0.69534523  0.35136058  0.02881359     0.08300
C778        C  0.72727109  0.36882032  0.01617231    -0.01900
Br779      Br  0.75331356  0.40555119  0.05581046    -0.00400
Br780      Br  0.71872428  0.33965485  0.93060751    -0.00500
Br781      Br  0.62620726  0.34011039  0.51318909    -0.00500
Br782      Br  0.69818920  0.43060726  0.97176861    -0.00400
C783        C  0.70546776  0.27841087  0.65240327    -0.01600
C784        C  0.69040304  0.29637937  0.65855662     0.08100
C785        C  0.68597346  0.30038112  0.71154200    -0.01700
C786        C  0.69445893  0.28829516  0.75081590    -0.01700
C787        C  0.70584039  0.26845776  0.74369958     0.08300
C788        C  0.70882880  0.26204726  0.69357701    -0.01900
Br789      Br  0.71807953  0.23053609  0.68233846    -0.00400
Br790      Br  0.73576748  0.28373494  0.60335899    -0.00500
Br791      Br  0.68943861  0.30006279  0.81741743    -0.00500
Br792      Br  0.66776662  0.32339617  0.73648378    -0.00400
C793        C  0.62403357  0.26244521  0.66518424    -0.01600
C794        C  0.63998472  0.29255530  0.63881234     0.08100
C795        C  0.61976627  0.30403193  0.63975949    -0.01700
C796        C  0.60242929  0.30104759  0.68441027    -0.01700
C797        C  0.59290502  0.27549532  0.71662973     0.08300
C798        C  0.59719688  0.25286325  0.69536866    -0.01900
Br799      Br  0.56680234  0.20962324  0.70962136    -0.00400
Br800      Br  0.63496984  0.23148490  0.66529131    -0.00500
Br801      Br  0.57749895  0.31915051  0.68596758    -0.00500
Br802      Br  0.58738337  0.28718035  0.59082091    -0.00400
C803        C  0.70524908  0.39676337  0.68751755    -0.01600
C804        C  0.72943910  0.40090177  0.71688959     0.08100
C805        C  0.74629169  0.39103183  0.69175442    -0.01700
C806        C  0.73130884  0.36383708  0.66031190    -0.01700
C807        C  0.69941118  0.34970879  0.64156392     0.08300
C808        C  0.68942527  0.37127696  0.65209038    -0.01900
Br809      Br  0.65622732  0.37108177  0.62151095    -0.00400
Br810      Br  0.70226472  0.43292761  0.68524484    -0.00500
Br811      Br  0.75721048  0.34761838  0.65786494    -0.00500
Br812      Br  0.79049092  0.41673188  0.70137387    -0.00400
C813        C  0.81793600  0.20686544  0.86533048    -0.01600
C814        C  0.80752018  0.17824373  0.84045562     0.08100
C815        C  0.77906101  0.16314963  0.81506461    -0.01700
C816        C  0.76020553  0.17520520  0.81786405    -0.01700
C817        C  0.77028511  0.20334210  0.84368522     0.08300
C818        C  0.79960777  0.21959102  0.86603087    -0.01900
Br819      Br  0.81533874  0.26014838  0.89543898    -0.00400
Br820      Br  0.85669979  0.22850255  0.90033926    -0.00500
Br821      Br  0.71994333  0.15249456  0.78777140    -0.00500
Br822      Br  0.76662513  0.12713800  0.77315429    -0.00400
C823        C  0.41990081  0.18568257  0.82705991    -0.01600
C824        C  0.41028336  0.19879922  0.79102578     0.08100
C825        C  0.43258482  0.22721997  0.76819031    -0.01700
C826        C  0.46397249  0.24192150  0.78066454    -0.01700
C827        C  0.47364470  0.22770836  0.81409537     0.08300
C828        C  0.45138331  0.19993846  0.83814713    -0.01900
Br829      Br  0.46404322  0.18063392  0.88522302    -0.00400
Br830      Br  0.39018872  0.14854981  0.86302492    -0.00500
Br831      Br  0.49378777  0.28240890  0.75392491    -0.00500
Br832      Br  0.42082868  0.24514830  0.71697589    -0.00400
C833        C  0.82223959  0.57175433  0.79622503    -0.01600
C834        C  0.80745145  0.58364117  0.82452141     0.08100
C835        C  0.78058917  0.56299632  0.85223829    -0.01700
C836        C  0.76906193  0.53093348  0.85256030    -0.01700
C837        C  0.78486070  0.51932209  0.82668513     0.08300
C838        C  0.81128550  0.53986180  0.79795154    -0.01900
Br839      Br  0.83334454  0.52460137  0.76226056    -0.00400
Br840      Br  0.85675797  0.59876669  0.75296813    -0.00500
Br841      Br  0.73060908  0.50280016  0.88633621    -0.00100
Br842      Br  0.76013759  0.57851101  0.89204503    -0.00400
C843        C  0.54789791  0.75370403  0.80947202    -0.01600
C844        C  0.53935415  0.77281378  0.78718452     0.08100
C845        C  0.56226489  0.80142044  0.76608560    -0.01700
C846        C  0.59349295  0.81108612  0.76798617    -0.01700
C847        C  0.60224474  0.79267250  0.79273110     0.08300
C848        C  0.57918751  0.76399080  0.81373112    -0.01900
Br849      Br  0.59012664  0.73967828  0.85225094    -0.00400
Br850      Br  0.51657466  0.71259551  0.83200135    -0.00500
Br851      Br  0.62389306  0.84927461  0.73506126    -0.00500
Br852      Br  0.55091799  0.82800902  0.73625888    -0.00400
C853        C  0.22104328  0.44386601  0.76049320    -0.01600
C854        C  0.24773828  0.46249965  0.78960769     0.08100
C855        C  0.25838507  0.44795620  0.82043800    -0.01700
C856        C  0.24240460  0.41523110  0.82243034    -0.01700
C857        C  0.21583351  0.39665223  0.79293884     0.08300
C858        C  0.20591561  0.41124921  0.76075676    -0.01900
Br859      Br  0.17310558  0.38693035  0.71351421    -0.00400
Br860      Br  0.20337393  0.46250894  0.72295819    -0.00500
Br861      Br  0.25694089  0.39627424  0.86671498    -0.00500
Br862      Br  0.29540582  0.47276952  0.85935818    -0.00400
C863        C  0.19844400  0.74540320  0.77622895    -0.01600
C864        C  0.22616876  0.75771634  0.80280221     0.08100
C865        C  0.23894497  0.78637215  0.82813954    -0.01700
C866        C  0.22376546  0.80237455  0.82803003    -0.01700
C867        C  0.19657891  0.79074275  0.79981718     0.08300
C868        C  0.18413054  0.76221124  0.77353247    -0.01900
Br869      Br  0.14843126  0.74655439  0.73141647    -0.00400
Br870      Br  0.17949843  0.70486630  0.74493656    -0.00500
Br871      Br  0.23949885  0.83906473  0.86962450    -0.00500
Br872      Br  0.27821206  0.80447458  0.86080938    -0.00400
C873        C  0.26946006  0.57640133  0.92770944    -0.01600
C874        C  0.29372307  0.58038668  0.89650131     0.08100
C875        C  0.32084141  0.58965172  0.92371617    -0.01700
C876        C  0.32549442  0.60383926  0.97258390    -0.01700
C877        C  0.30711599  0.61569029  0.98952793     0.08300
C878        C  0.27627683  0.59175684  0.97605066    -0.01900
Br879      Br  0.25383703  0.56318176  0.52429837    -0.00400
Br880      Br  0.22866187  0.53991101  0.91446330    -0.00500
Br881      Br  0.32963718  0.57819763  0.01980224    -0.00500
Br882      Br  0.34364966  0.57085706  0.90429838    -0.00400
C883        C  0.25768708  0.66486681  0.93298040    -0.01600
C884        C  0.27811079  0.69287689  0.90938446     0.08100
C885        C  0.30427382  0.71236690  0.93895744    -0.01700
C886        C  0.31591480  0.69984199  0.97385601    -0.01700
C887        C  0.30036088  0.66674190  0.98368791     0.08300
C888        C  0.26809736  0.65003941  0.96560330    -0.01900
Br889      Br  0.23637557  0.61689182  0.48791062    -0.00400
Br890      Br  0.21511415  0.65347750  0.93082985    -0.00500
Br891      Br  0.35358754  0.72942123  0.00722225    -0.00500
Br892      Br  0.32017932  0.75632680  0.93762156    -0.00400
C893        C  0.36809033  0.68898990  0.87236602    -0.01600
C894        C  0.40077824  0.70575068  0.88199994     0.08100
C895        C  0.40726725  0.69786152  0.92844299    -0.01700
C896        C  0.38285950  0.67755381  0.96412611    -0.01700
C897        C  0.35136947  0.67051285  0.96223304     0.08300
C898        C  0.34500199  0.67232191  0.91008257    -0.01900
Br899      Br  0.30439236  0.64571985  0.88273027    -0.00400
Br900      Br  0.35252368  0.68299930  0.80416942    -0.00500
Br901      Br  0.39453344  0.65241536  0.49310282    -0.00500
Br902      Br  0.44927186  0.70900786  0.93671444    -0.00400
C903        C  0.27202909  0.58081039  0.64559604    -0.01600
C904        C  0.29248070  0.57697212  0.67218087     0.08100
C905        C  0.31957850  0.58750840  0.64538813    -0.01700
C906        C  0.33288411  0.61505787  0.61507908    -0.01700
C907        C  0.31536408  0.62855351  0.59952744     0.08300
C908        C  0.28263543  0.60715058  0.61341071    -0.01900
Br909      Br  0.24877298  0.61160644  0.60127613    -0.00400
Br910      Br  0.23000175  0.54473836  0.64620932    -0.00500
Br911      Br  0.37559749  0.63142534  0.60444554    -0.00500
Br912      Br  0.33661664  0.56186301  0.65013557    -0.00400
C913        C  0.31366695  0.68239075  0.65454072    -0.01600
C914        C  0.30798300  0.67592457  0.60244599     0.08100
C915        C  0.28074100  0.67992789  0.59692770    -0.01700
C916        C  0.26628839  0.68535893  0.64222970    -0.01700
C917        C  0.28545115  0.70136526  0.68542600     0.08300
C918        C  0.31492516  0.70883297  0.67315664    -0.01900
Br919      Br  0.33738691  0.74643010  0.63362409    -0.00400
Br920      Br  0.29546184  0.64921279  0.70239962    -0.00500
Br921      Br  0.22443562  0.67448999  0.64276401    -0.00500
Br922      Br  0.27454421  0.70190181  0.54631688    -0.00400
C923        C  0.42216595  0.70791801  0.62648813    -0.01600
C924        C  0.42137298  0.72654028  0.66832106     0.08100
C925        C  0.39803138  0.73115388  0.65626415    -0.01700
C926        C  0.37060708  0.70333218  0.64115399    -0.01700
C927        C  0.36705478  0.69029243  0.59249590     0.08300
C928        C  0.39927584  0.69768644  0.58371559    -0.01900
Br929      Br  0.42359866  0.72965990  0.53579307    -0.00400
Br930      Br  0.45568949  0.70209593  0.62176496    -0.00500
Br931      Br  0.36105690  0.67131550  0.68772955    -0.00500
Br932      Br  0.41210917  0.76995892  0.62300652    -0.00400
loop_ 
_geom_bond_atom_site_label_1 
_geom_bond_atom_site_label_2 
_geom_bond_distance 
_geom_bond_site_symmetry_2 
_ccdc_geom_bond_type 
C1            C2   1.843       .  S
C1          C441   1.672       .  S
C1          C448   1.773       .  S
C1          C461   1.767       .  S
C2          C877   1.692   1_554  S
C2          C887   1.669   1_554  S
C2          C897   1.703   1_554  S
C3            C5   1.538       .  S
C3            C7   1.544       .  S
C3            C6   1.558       .  S
C3          C451   1.614       .  S
C4            C8   1.537       .  S
C4           C10   1.545       .  S
C4            C9   1.579       .  S
C4          C418   1.609       .  S
C5           C13   1.381       .  A
C5            C8   1.384       .  A
C6           C17   1.374       .  A
C6            C9   1.441       .  A
C7           C21   1.385       .  A
C7           C10   1.393       .  A
C8           C11   1.381       .  A
C9           C15   1.381       .  A
C10          C18   1.371       .  A
C11          N12   1.352       .  A
C11          H24   1.073       .  S
N12          C13   1.342       .  A
N12          N58   1.413       .  S
C13          H14   1.069       .  S
C15          N16   1.367       .  A
C15          H25   1.082       .  S
N16          C17   1.364       .  A
N16         C398   1.449       .  S
C17          H23   1.082       .  S
C18          N19   1.354       .  A
C18          H20   1.068       .  S
N19          C21   1.359       .  A
N19          N35   1.422       .  S
C21          H22   1.081       .  S
C26          C28   1.565       .  S
C26          C30   1.539       .  S
C26          C29   1.540       .  S
C26         C438   1.576       .  S
C27          C31   1.540       .  S
C27          C33   1.542       .  S
C27          C32   1.549       .  S
C27         C408   1.582       .  S
C28          C36   1.397       .  A
C28          C31   1.391       .  A
C29          C40   1.367       .  A
C29          C32   1.419       .  A
C30          C44   1.384       .  A
C30          C33   1.396       .  A
C31          C34   1.368       .  A
C32          C38   1.376       .  A
C33          C41   1.375       .  A
C34          N35   1.351       .  A
C34          H47   1.069       .  S
N35          C36   1.356       .  A
C36          H37   1.073       .  S
C38          N39   1.361       .  A
C38          H48   1.082       .  S
N39          C40   1.358       .  A
N39         C388   1.435       .  S
C40          H46   1.082       .  S
C41          N42   1.356       .  A
C41          H43   1.075       .  S
N42          C44   1.335       .  A
N42          N65   1.413       .  S
C44          H45   1.068       .  S
C49          C51   1.501       .  S
C49          C53   1.500       .  S
C49          C52   1.587       .  S
C49         C428   1.632       .  S
C50          C54   1.583       .  S
C50          C56   1.542       .  S
C50          C55   1.581       .  S
C50         C458   1.641       .  S
C51          C59   1.365       .  A
C51          C54   1.384       .  A
C52          C63   1.371       .  A
C52          C55   1.467       .  A
C53          C67   1.360       .  A
C53          C56   1.378       .  A
C54          C57   1.397       .  A
C55          C61   1.373       .  A
C56          C64   1.383       .  A
C57          N58   1.361       .  A
C57          H70   1.066       .  S
N58          C59   1.343       .  A
C59          H60   1.082       .  S
C61          N62   1.365       .  A
C61          H71   1.083       .  S
N62          C63   1.363       .  A
N62         C378   1.441       .  S
C63          H69   1.081       .  S
C64          N65   1.365       .  A
C64          H66   1.077       .  S
N65          C67   1.338       .  A
C67          H68   1.082       .  S
N72          C76   1.348       .  A
N72          N73   1.324       .  A
N72         Cu80   2.088       .  S
N73          C74   1.346       .  A
N73         Cu79   2.085       .  S
C74          C75   1.386       .  A
C74          H77   1.082       .  S
C75          C76   1.384       .  A
C75         C195   1.478       .  S
C76          H78   1.082       .  S
Cu79         N82   2.084       .  S
Cu80         N90   2.089       .  S
Cu81         N83   2.083       .  S
Cu81         N89   2.084       .  S
N82          C86   1.348       .  A
N82          N83   1.324       .  A
N83          C84   1.346       .  A
C84          C85   1.383       .  A
C84          H87   1.082       .  S
C85          C86   1.386       .  A
C85         C109   1.477   1_655  S
C86          H88   1.082       .  S
N89          C93   1.347       .  A
N89          N90   1.321       .  A
N90          C91   1.349       .  A
C91          C92   1.389       .  A
C91          H94   1.082       .  S
C92          C93   1.389       .  A
C92         C368   1.496       .  S
C93          H95   1.082       .  S
N96         C100   1.348       .  A
N96          N97   1.323       .  A
N96        Cu104   2.088       .  S
N97          C98   1.346       .  A
N97        Cu103   2.075       .  S
C98          C99   1.384       .  A
C98         H101   1.082       .  S
C99         C100   1.386       .  A
C99         C133   1.477   1_565  S
C100        H102   1.082       .  S
Cu103       N106   2.075       .  S
Cu104       N114   2.089       .  S
Cu105       N107   2.090       .  S
Cu105       N113   2.091       .  S
N106        C110   1.346       .  A
N106        N107   1.323       .  A
N107        C108   1.347       .  A
C108        C109   1.386       .  A
C108        H111   1.082       .  S
C109        C110   1.383       .  A
C110        H112   1.082       .  S
N113        C117   1.349       .  A
N113        N114   1.323       .  A
N114        C115   1.346       .  A
C115        C116   1.387       .  A
C115        H118   1.082       .  S
C116        C117   1.388       .  A
C116        C401   1.494       .  S
C117        H119   1.082       .  S
N120        C124   1.349       .  A
N120        N121   1.324       .  A
N120       Cu128   2.087       .  S
N121        C122   1.344       .  A
N121       Cu127   2.078       .  S
C122        C123   1.382       .  A
C122        H125   1.082       .  S
C123        C124   1.385       .  A
C123        C147   1.474       .  S
C124        H126   1.082       .  S
Cu127       N130   2.078       .  S
Cu128       N138   2.087       .  S
Cu129       N131   2.082       .  S
Cu129       N137   2.082       .  S
N130        C134   1.346       .  A
N130        N131   1.322       .  A
N131        C132   1.347       .  A
C132        C133   1.385       .  A
C132        H135   1.082       .  S
C133        C134   1.385       .  A
C134        H136   1.082       .  S
N137        C141   1.342       .  A
N137        N138   1.322       .  A
N138        C139   1.350       .  A
C139        C140   1.391       .  A
C139        H142   1.081       .  S
C140        C141   1.387       .  A
C140        C358   1.495       .  S
C141        H143   1.082       .  S
N144        C148   1.349       .  A
N144        N145   1.324       .  A
N144       Cu152   2.090       .  S
N145        C146   1.343       .  A
N145       Cu151   2.072       .  S
C146        C147   1.381       .  A
C146        H149   1.082       .  S
C147        C148   1.386       .  A
C148        H150   1.082       .  S
Cu151       N154   2.070       .  S
Cu152       N162   2.088       .  S
Cu153       N155   2.054       .  S
Cu153       N161   2.055       .  S
N154        C158   1.345       .  A
N154        N155   1.320       .  A
N155        C156   1.342       .  A
C156        C157   1.380       .  A
C156        H159   1.082       .  S
C157        C158   1.384       .  A
C157        C171   1.466       .  S
C158        H160   1.082       .  S
N161        C165   1.339       .  A
N161        N162   1.321       .  A
N162        C163   1.348       .  A
C163        C164   1.390       .  A
C163        H166   1.082       .  S
C164        C165   1.381       .  A
C164        C391   1.485       .  S
C165        H167   1.082       .  S
N168        C172   1.344       .  A
N168        N169   1.322       .  A
N168       Cu176   2.071       .  S
N169        C170   1.343       .  A
N169       Cu175   2.062       .  S
C170        C171   1.380   1_655  A
C170        H173   1.082       .  S
C171        C172   1.383   1_455  A
C172        H174   1.082       .  S
Cu175       N178   2.062       .  S
Cu176       N186   2.071       .  S
Cu177       N179   2.074       .  S
Cu177       N185   2.074       .  S
N178        C182   1.343       .  A
N178        N179   1.321       .  A
N179        C180   1.344       .  A
C180        C181   1.384       .  A
C180        H183   1.082       .  S
C181        C182   1.381       .  A
C181        C205   1.468   1_545  S
C182        H184   1.082       .  S
N185        C189   1.344       .  A
N185        N186   1.322       .  A
N186        C187   1.345       .  A
C187        C188   1.385       .  A
C187        H190   1.082       .  S
C188        C189   1.385       .  A
C188        C348   1.484       .  S
C189        H191   1.082       .  S
N192        C196   1.351       .  A
N192        N193   1.324       .  A
N192       Cu200   2.098       .  S
N193        C194   1.343       .  A
N193       Cu199   2.071       .  S
C194        C195   1.380       .  A
C194        H197   1.082       .  S
C195        C196   1.389       .  A
C196        H198   1.082       .  S
Cu199       N202   2.071       .  S
Cu200       N210   2.097       .  S
Cu201       N203   2.054       .  S
Cu201       N209   2.055       .  S
N202        C206   1.345       .  A
N202        N203   1.319       .  A
N203        C204   1.343       .  A
C204        C205   1.382       .  A
C204        H207   1.082       .  S
C205        C206   1.385       .  A
C206        H208   1.082       .  S
N209        C213   1.341       .  A
N209        N210   1.323       .  A
N210        C211   1.348       .  A
C211        C212   1.390       .  A
C211        H214   1.082       .  S
C212        C213   1.380       .  A
C212        C381   1.486       .  S
C213        H215   1.082       .  S
C216        C217   1.808       .  S
C216        C318   1.689       .  S
C216        C328   1.668       .  S
C216        C341   1.721       .  S
C217        C754   1.710       .  S
C217        C764   1.705       .  S
C217        C777   1.710       .  S
C218        C220   1.531       .  S
C218        C222   1.548       .  S
C218        C221   1.566       .  S
C218        C301   1.590       .  S
C219        C223   1.546       .  S
C219        C225   1.541       .  S
C219        C224   1.578       .  S
C219        C331   1.588       .  S
C220        C228   1.393       .  A
C220        C223   1.362       .  A
C221        C232   1.384       .  A
C221        C224   1.467       .  A
C222        C236   1.388       .  A
C222        C225   1.380       .  A
C223        C226   1.388       .  A
C224        C230   1.381       .  A
C225        C233   1.371       .  A
C226        N227   1.358       .  A
C226        H239   1.068       .  S
N227        C228   1.355       .  A
N227        N250   1.426       .  S
C228        H229   1.082       .  S
C230        N231   1.354       .  A
C230        H240   1.082       .  S
N231        C232   1.354       .  A
N231        C361   1.440       .  S
C232        H238   1.082       .  S
C233        N234   1.363       .  A
C233        H235   1.069       .  S
N234        C236   1.358       .  A
N234        N280   1.425       .  S
C236        H237   1.080       .  S
C241        C243   1.525       .  S
C241        C245   1.515       .  S
C241        C244   1.576       .  S
C241        C321   1.606       .  S
C242        C246   1.566       .  S
C242        C248   1.578       .  S
C242        C247   1.573       .  S
C242        C291   1.611       .  S
C243        C251   1.377       .  A
C243        C246   1.375       .  A
C244        C255   1.374       .  A
C244        C247   1.456       .  A
C245        C259   1.374       .  A
C245        C248   1.379       .  A
C246        C249   1.404       .  A
C247        C253   1.372       .  A
C248        C256   1.405       .  A
C249        N250   1.361       .  A
C249        H262   1.076       .  S
N250        C251   1.346       .  A
C251        H252   1.081       .  S
C253        N254   1.363       .  A
C253        H263   1.082       .  S
N254        C255   1.363       .  A
N254        C351   1.439       .  S
C255        H261   1.081       .  S
C256        N257   1.366       .  A
C256        H258   1.074       .  S
N257        C259   1.348       .  A
N257        N273   1.425       .  S
C259        H260   1.081       .  S
C264        C266   1.543       .  S
C264        C268   1.523       .  S
C264        C267   1.573       .  S
C264        C338   1.610       .  S
C265        C269   1.558       .  S
C265        C271   1.567       .  S
C265        C270   1.569       .  S
C265        C308   1.637       .  S
C266        C274   1.379       .  A
C266        C269   1.381       .  A
C267        C278   1.375       .  A
C267        C270   1.447       .  A
C268        C282   1.363       .  A
C268        C271   1.391       .  A
C269        C272   1.401       .  A
C270        C276   1.379       .  A
C271        C279   1.409       .  A
C272        N273   1.355       .  A
C272        H285   1.082       .  S
N273        C274   1.357       .  A
C274        H275   1.070       .  S
C276        N277   1.366       .  A
C276        H286   1.082       .  S
N277        C278   1.363       .  A
N277        C371   1.446       .  S
C278        H284   1.082       .  S
C279        N280   1.364       .  A
C279        H281   1.070       .  S
N280        C282   1.346       .  A
C282        H283   1.060       .  S
C287        C288   1.474       .  A
C287        C292   1.457       .  A
C287       Br294   1.890       .  S
C288        C683   1.709       .  S
C288        C289   1.484       .  A
C289        C290   1.451       .  A
C289       Br296   1.926       .  S
C290        C291   1.396       .  A
C290       Br295   1.942       .  S
C291        C292   1.403       .  A
C292       Br293   1.933       .  S
C297        C298   1.393       .  A
C297        C302   1.382       .  A
C297       Br304   1.829       .  S
C298        C683   1.697       .  S
C298        C299   1.495       .  A
C299        C300   1.475       .  A
C299       Br772   1.904       .  S
C300        C301   1.410       .  A
C300       Br305   1.936       .  S
C301        C302   1.420       .  A
C302       Br303   1.910       .  S
Br306       C765   1.921       .  S
C307        C308   1.429       .  A
C307        C312   1.419       .  A
C307       Br314   1.850       .  S
C308        C309   1.429       .  A
C309        C310   1.477       .  A
C309       Br316   1.930       .  S
C310        C311   1.501       .  A
C310       Br781   1.908       .  S
C311        C683   1.722       .  S
C311        C312   1.419       .  A
C312       Br313   1.931       .  S
Br315       C776   1.930       .  S
C317        C318   1.498       .  A
C317        C322   1.451       .  A
C317       Br324   1.924       .  S
C318        C319   1.454       .  A
C319        C320   1.410       .  A
C319       Br326   1.961       .  S
C320        C321   1.429       .  A
C320       Br325   1.921       .  S
C321        C322   1.389       .  A
C322       Br323   1.935       .  S
C327        C328   1.477       .  A
C327        C332   1.435       .  A
C327       Br334   1.915       .  S
C328        C329   1.463       .  A
C329        C330   1.444       .  A
C329       Br336   1.897       .  S
C330        C331   1.399       .  A
C330       Br335   1.938       .  S
C331        C332   1.392       .  A
C332       Br333   1.942       .  S
C337        C338   1.415       .  A
C337        C342   1.451       .  A
C337       Br344   1.955       .  S
C338        C339   1.400       .  A
C339        C340   1.438       .  A
C339       Br346   1.936       .  S
C340        C341   1.477       .  A
C340       Br345   1.916       .  S
C341        C342   1.456       .  A
C342       Br343   1.909       .  S
C347        C348   1.414       .  A
C347        C352   1.408       .  A
C347       Br354   1.931       .  S
C348        C349   1.414       .  A
C349        C350   1.407       .  A
C349       Br356   1.932       .  S
C350        C351   1.409       .  A
C350       Br355   1.929       .  S
C351        C352   1.408       .  A
C352       Br353   1.929       .  S
C357        C358   1.418       .  A
C357        C362   1.406       .  A
C357       Br364   1.932       .  S
C358        C359   1.419       .  A
C359        C360   1.414       .  A
C359       Br366   1.930       .  S
C360        C361   1.409       .  A
C360       Br365   1.928       .  S
C361        C362   1.403       .  A
C362       Br363   1.928       .  S
C367        C368   1.415       .  A
C367        C372   1.412       .  A
C367       Br374   1.932       .  S
C368        C369   1.416       .  A
C369        C370   1.413       .  A
C369       Br376   1.929       .  S
C370        C371   1.409       .  A
C370       Br375   1.928       .  S
C371        C372   1.411       .  A
C372       Br373   1.928       .  S
C377        C378   1.412       .  A
C377        C382   1.407       .  A
C377       Br384   1.932       .  S
C378        C379   1.409       .  A
C379        C380   1.409       .  A
C379       Br386   1.931       .  S
C380        C381   1.417       .  A
C380       Br385   1.933       .  S
C381        C382   1.413       .  A
C382       Br383   1.933       .  S
C387        C388   1.407       .  A
C387        C392   1.405       .  A
C387       Br394   1.932       .  S
C388        C389   1.406       .  A
C389        C390   1.409       .  A
C389       Br396   1.928       .  S
C390        C391   1.416       .  A
C390       Br395   1.930       .  S
C391        C392   1.416       .  A
C392       Br393   1.934       .  S
C397        C398   1.414       .  A
C397        C402   1.413       .  A
C397       Br404   1.929       .  S
C398        C399   1.411       .  A
C399        C400   1.412       .  A
C399       Br406   1.927       .  S
C400        C401   1.414       .  A
C400       Br405   1.932       .  S
C401        C402   1.414       .  A
C402       Br403   1.930       .  S
C407        C408   1.412       .  A
C407        C412   1.439       .  A
C407       Br414   1.953       .  S
C408        C409   1.417       .  A
C409        C410   1.436       .  A
C409       Br416   1.944       .  S
C410        C411   1.440       .  A
C410       Br415   1.921       .  S
C411        C468   1.686       .  S
C411        C412   1.436       .  A
C412       Br879   1.918       .  S
Br413       C878   1.922   1_554  S
C417        C418   1.392       .  A
C417        C422   1.447       .  A
C417       Br424   1.943       .  S
C418        C419   1.411       .  A
C419        C420   1.444       .  A
C419       Br426   1.935       .  S
C420        C421   1.456       .  A
C420       Br425   1.921       .  S
C421        C468   1.673       .  S
C421        C422   1.483       .  A
C422       Br889   1.911       .  S
Br423       C888   1.919       .  S
C427        C428   1.445       .  A
C427        C432   1.429       .  A
C427       Br434   1.949       .  S
C428        C429   1.407       .  A
C429        C430   1.466       .  A
C429       Br436   1.937       .  S
C430        C431   1.463       .  A
C430       Br901   1.899       .  S
C431        C468   1.703       .  S
C431        C432   1.446       .  A
C432       Br433   1.923       .  S
Br435       C896   1.899       .  S
C437        C438   1.377       .  A
C437        C442   1.434       .  A
C437       Br444   1.943       .  S
C438        C439   1.387       .  A
C439        C440   1.435       .  A
C439       Br446   1.942       .  S
C440        C441   1.467       .  A
C440       Br445   1.909       .  S
C441        C442   1.475       .  A
C442       Br443   1.911       .  S
C447        C448   1.421       .  A
C447        C452   1.409       .  A
C447       Br454   1.906       .  S
C448        C449   1.546       .  A
C449        C450   1.519       .  A
C449       Br456   1.887       .  S
C450        C451   1.440       .  A
C450       Br455   1.925       .  S
C451        C452   1.390       .  A
C452       Br453   1.936       .  S
C457        C458   1.471       .  A
C457        C462   1.523       .  A
C457       Br464   1.913       .  S
C458        C459   1.392       .  A
C459        C460   1.422       .  A
C459       Br466   1.932       .  S
C460        C461   1.419       .  A
C460       Br465   1.902       .  S
C461        C462   1.509       .  A
C462       Br463   1.917       .  S
C467        C468   1.834       .  S
C467        C907   1.685       .  S
C467        C914   1.756       .  S
C467        C927   1.763       .  S
C469        C471   1.543       .  S
C469        C473   1.546       .  S
C469        C472   1.543       .  S
C469        C917   1.611       .  S
C470        C474   1.536       .  S
C470        C476   1.545       .  S
C470        C475   1.573       .  S
C470        C884   1.604       .  S
C471        C479   1.383       .  A
C471        C474   1.386       .  A
C472        C483   1.365       .  A
C472        C475   1.439       .  A
C473        C487   1.384       .  A
C473        C476   1.394       .  A
C474        C477   1.383       .  A
C475        C481   1.376       .  A
C476        C484   1.368       .  A
C477        N478   1.352       .  A
C477        H490   1.075       .  S
N478        C479   1.341       .  A
N478        N524   1.414       .  S
C479        H480   1.068       .  S
C481        N482   1.365       .  A
C481        H491   1.082       .  S
N482        C483   1.359       .  A
N482        C864   1.437       .  S
C483        H489   1.082       .  S
C484        N485   1.349       .  A
C484        H486   1.066       .  S
N485        C487   1.361       .  A
N485        N501   1.420       .  S
C487        H488   1.080       .  S
C492        C494   1.562       .  S
C492        C496   1.534       .  S
C492        C495   1.554       .  S
C492        C904   1.589       .  S
C493        C497   1.540       .  S
C493        C499   1.544       .  S
C493        C498   1.548       .  S
C493        C874   1.593       .  S
C494        C502   1.392       .  A
C494        C497   1.393       .  A
C495        C506   1.375       .  A
C495        C498   1.425       .  A
C496        C510   1.383       .  A
C496        C499   1.397       .  A
C497        C500   1.366       .  A
C498        C504   1.373       .  A
C499        C507   1.378       .  A
C500        N501   1.355       .  A
C500        H513   1.069       .  S
N501        C502   1.352       .  A
C502        H503   1.072       .  S
C504        N505   1.360       .  A
C504        H514   1.082       .  S
N505        C506   1.363       .  A
N505        C854   1.445       .  S
C506        H512   1.082       .  S
C507        N508   1.355       .  A
C507        H509   1.077       .  S
N508        C510   1.335       .  A
N508        N531   1.413       .  S
C510        H511   1.056       .  S
C515        C517   1.502       .  S
C515        C519   1.499       .  S
C515        C518   1.596       .  S
C515        C894   1.637       .  S
C516        C520   1.583       .  S
C516        C522   1.544       .  S
C516        C521   1.575       .  S
C516        C924   1.641       .  S
C517        C525   1.368       .  A
C517        C520   1.384       .  A
C518        C529   1.377       .  A
C518        C521   1.468       .  A
C519        C533   1.360       .  A
C519        C522   1.379       .  A
C520        C523   1.397       .  A
C521        C527   1.373       .  A
C522        C530   1.382       .  A
C523        N524   1.361       .  A
C523        H536   1.068       .  S
N524        C525   1.342       .  A
C525        H526   1.082       .  S
C527        N528   1.362       .  A
C527        H537   1.082       .  S
N528        C529   1.365       .  A
N528        C844   1.443       .  S
C529        H535   1.081       .  S
C530        N531   1.366       .  A
C530        H532   1.078       .  S
N531        C533   1.337       .  A
C533        H534   1.081       .  S
N538        C542   1.350       .  A
N538        N539   1.325       .  A
N538       Cu546   2.088       .  S
N539        C540   1.345       .  A
N539       Cu545   2.096       .  S
C540        C541   1.386       .  A
C540        H543   1.082       .  S
C541        C542   1.385       .  A
C541        C661   1.480       .  S
C542        H544   1.082       .  S
Cu545       N548   2.094       .  S
Cu546       N556   2.087       .  S
Cu547       N549   2.064       .  S
Cu547       N555   2.063       .  S
N548        C552   1.350       .  A
N548        N549   1.321       .  A
N549        C550   1.344       .  A
C550        C551   1.382       .  A
C550        H553   1.082       .  S
C551        C552   1.389       .  A
C551        C575   1.478   1_655  S
C552        H554   1.082       .  S
N555        C559   1.342       .  A
N555        N556   1.321       .  A
N556        C557   1.348       .  A
C557        C558   1.389       .  A
C557        H560   1.082       .  S
C558        C559   1.382       .  A
C558        C834   1.485       .  S
C559        H561   1.082       .  S
N562        C566   1.347       .  A
N562        N563   1.323       .  A
N562       Cu570   2.081       .  S
N563        C564   1.346       .  A
N563       Cu569   2.083       .  S
C564        C565   1.385       .  A
C564        H567   1.082       .  S
C565        C566   1.385       .  A
C565        C599   1.477   1_565  S
C566        H568   1.082       .  S
Cu569       N572   2.082       .  S
Cu570       N580   2.081       .  S
Cu571       N573   2.080       .  S
Cu571       N579   2.079       .  S
N572        C576   1.347       .  A
N572        N573   1.322       .  A
N573        C574   1.347       .  A
C574        C575   1.386       .  A
C574        H577   1.082       .  S
C575        C576   1.384       .  A
C576        H578   1.082       .  S
N579        C583   1.345       .  A
N579        N580   1.323       .  A
N580        C581   1.346       .  A
C581        C582   1.386       .  A
C581        H584   1.082       .  S
C582        C583   1.384       .  A
C582        C867   1.486       .  S
C583        H585   1.082       .  S
N586        C590   1.347       .  A
N586        N587   1.324       .  A
N586       Cu594   2.092       .  S
N587        C588   1.347       .  A
N587       Cu593   2.079       .  S
C588        C589   1.383       .  A
C588        H591   1.082       .  S
C589        C590   1.386       .  A
C589        C613   1.476       .  S
C590        H592   1.082       .  S
Cu593       N596   2.079       .  S
Cu594       N604   2.092       .  S
Cu595       N597   2.084       .  S
Cu595       N603   2.084       .  S
N596        C600   1.346       .  A
N596        N597   1.322       .  A
N597        C598   1.347       .  A
C598        C599   1.385       .  A
C598        H601   1.082       .  S
C599        C600   1.384       .  A
C600        H602   1.082       .  S
N603        C607   1.345       .  A
N603        N604   1.323       .  A
N604        C605   1.349       .  A
C605        C606   1.389       .  A
C605        H608   1.082       .  S
C606        C607   1.387       .  A
C606        C824   1.493       .  S
C607        H609   1.082       .  S
N610        C614   1.345       .  A
N610        N611   1.322       .  A
N610       Cu618   2.074       .  S
N611        C612   1.347       .  A
N611       Cu617   2.082       .  S
C612        C613   1.386       .  A
C612        H615   1.082       .  S
C613        C614   1.383       .  A
C614        H616   1.082       .  S
Cu617       N620   2.081       .  S
Cu618       N628   2.074       .  S
Cu619       N621   2.082       .  S
Cu619       N627   2.083       .  S
N620        C624   1.346       .  A
N620        N621   1.324       .  A
N621        C622   1.346       .  A
C622        C623   1.384       .  A
C622        H625   1.082       .  S
C623        C624   1.383       .  A
C623        C637   1.473   1_455  S
C624        H626   1.082       .  S
N627        C631   1.346       .  A
N627        N628   1.322       .  A
N628        C629   1.345       .  A
C629        C630   1.385       .  A
C629        H632   1.082       .  S
C630        C631   1.388       .  A
C630        C857   1.489       .  S
C631        H633   1.082       .  S
N634        C638   1.345       .  A
N634        N635   1.323       .  A
N634       Cu642   2.076       .  S
N635        C636   1.345       .  A
N635       Cu641   2.073       .  S
C636        C637   1.383       .  A
C636        H639   1.082       .  S
C637        C638   1.384       .  A
C638        H640   1.082       .  S
Cu641       N644   2.071       .  S
Cu642       N652   2.075       .  S
Cu643       N645   2.082       .  S
Cu643       N651   2.082       .  S
N644        C648   1.345       .  A
N644        N645   1.322       .  A
N645        C646   1.346       .  A
C646        C647   1.386   1_545  A
C646        H649   1.082       .  S
C647        C648   1.382   1_565  A
C647        C671   1.473       .  S
C648        H650   1.082       .  S
N651        C655   1.344       .  A
N651        N652   1.322       .  A
N652        C653   1.346       .  A
C653        C654   1.386       .  A
C653        H656   1.082       .  S
C654        C655   1.386       .  A
C654        C814   1.487       .  S
C655        H657   1.082       .  S
N658        C662   1.353       .  A
N658        N659   1.325       .  A
N658       Cu666   2.110       .  S
N659        C660   1.342       .  A
N659       Cu665   2.076       .  S
C660        C661   1.380       .  A
C660        H663   1.082       .  S
C661        C662   1.391       .  A
C662        H664   1.082       .  S
Cu665       N668   2.076       .  S
Cu666       N676   2.109       .  S
Cu667       N669   2.056       .  S
Cu667       N675   2.055       .  S
N668        C672   1.346       .  A
N668        N669   1.319       .  A
N669        C670   1.344       .  A
C670        C671   1.382       .  A
C670        H673   1.082       .  S
C671        C672   1.387       .  A
C672        H674   1.082       .  S
N675        C679   1.340       .  A
N675        N676   1.323       .  A
N676        C677   1.352       .  A
C677        C678   1.394       .  A
C677        H680   1.082       .  S
C678        C679   1.379       .  A
C678        C847   1.490       .  S
C679        H681   1.082       .  S
C682        C683   1.791       .  S
C682        C784   1.682       .  S
C682        C794   1.694       .  S
C682        C807   1.699       .  S
C684        C686   1.539       .  S
C684        C688   1.553       .  S
C684        C687   1.572       .  S
C684        C767   1.598       .  S
C685        C689   1.540       .  S
C685        C691   1.539       .  S
C685        C690   1.567       .  S
C685        C797   1.587       .  S
C686        C694   1.398       .  A
C686        C689   1.370       .  A
C687        C698   1.386       .  A
C687        C690   1.451       .  A
C688        C702   1.393       .  A
C688        C691   1.384       .  A
C689        C692   1.379       .  A
C690        C696   1.369       .  A
C691        C699   1.368       .  A
C692        N693   1.354       .  A
C692        H705   1.064       .  S
N693        C694   1.354       .  A
N693        N716   1.426       .  S
C694        H695   1.082       .  S
C696        N697   1.356       .  A
C696        H706   1.082       .  S
N697        C698   1.364       .  A
N697        C827   1.444       .  S
C698        H704   1.081       .  S
C699        N700   1.359       .  A
C699        H701   1.069       .  S
N700        C702   1.362       .  A
N700        N746   1.425       .  S
C702        H703   1.080       .  S
C707        C709   1.519       .  S
C707        C711   1.518       .  S
C707        C710   1.574       .  S
C707        C787   1.611       .  S
C708        C712   1.567       .  S
C708        C714   1.578       .  S
C708        C713   1.581       .  S
C708        C757   1.621       .  S
C709        C717   1.370       .  A
C709        C712   1.377       .  A
C710        C721   1.372       .  A
C710        C713   1.458       .  A
C711        C725   1.376       .  A
C711        C714   1.380       .  A
C712        C715   1.404       .  A
C713        C719   1.375       .  A
C714        C722   1.405       .  A
C715        N716   1.361       .  A
C715        H728   1.076       .  S
N716        C717   1.347       .  A
C717        H718   1.078       .  S
C719        N720   1.365       .  A
C719        H729   1.082       .  S
N720        C721   1.361       .  A
N720        C817   1.441       .  S
C721        H727   1.081       .  S
C722        N723   1.366       .  A
C722        H724   1.073       .  S
N723        C725   1.345       .  A
N723        N739   1.426       .  S
C725        H726   1.081       .  S
C730        C732   1.549       .  S
C730        C734   1.524       .  S
C730        C733   1.566       .  S
C730        C804   1.600       .  S
C731        C735   1.545       .  S
C731        C737   1.575       .  S
C731        C736   1.566       .  S
C731        C774   1.638       .  S
C732        C740   1.382       .  A
C732        C735   1.378       .  A
C733        C744   1.372       .  A
C733        C736   1.449       .  A
C734        C748   1.370       .  A
C734        C737   1.392       .  A
C735        C738   1.400       .  A
C736        C742   1.378       .  A
C737        C745   1.402       .  A
C738        N739   1.351       .  A
C738        H751   1.082       .  S
N739        C740   1.359       .  A
C740        H741   1.066       .  S
C742        N743   1.364       .  A
C742        H752   1.082       .  S
N743        C744   1.358       .  A
N743        C837   1.444       .  S
C744        H750   1.082       .  S
C745        N746   1.361       .  A
C745        H747   1.070       .  S
N746        C748   1.349       .  A
C748        H749   1.066       .  S
C753        C754   1.485       .  A
C753        C758   1.459   1_554  A
C753       Br760   1.914       .  S
C754        C755   1.474       .  A
C755        C756   1.455   1_554  A
C755       Br762   1.906       .  S
C756        C757   1.399       .  A
C756       Br761   1.941       .  S
C757        C758   1.408       .  A
C758       Br759   1.934       .  S
C763        C764   1.404   1_556  A
C763        C768   1.379       .  A
C763       Br770   1.839       .  S
C764        C765   1.501       .  A
C765        C766   1.483   1_554  A
C766        C767   1.418       .  A
C766       Br771   1.932       .  S
C767        C768   1.419       .  A
C768       Br769   1.911       .  S
C773        C774   1.434       .  A
C773        C778   1.420   1_556  A
C773       Br780   1.846       .  S
C774        C775   1.428       .  A
C775        C776   1.472   1_556  A
C775       Br782   1.931       .  S
C776        C777   1.500       .  A
C777        C778   1.425       .  A
C778       Br779   1.924       .  S
C783        C784   1.498       .  A
C783        C788   1.455       .  A
C783       Br790   1.930       .  S
C784        C785   1.456       .  A
C785        C786   1.410       .  A
C785       Br792   1.968       .  S
C786        C787   1.431       .  A
C786       Br791   1.925       .  S
C787        C788   1.397       .  A
C788       Br789   1.932       .  S
C793        C794   1.477       .  A
C793        C798   1.434       .  A
C793       Br800   1.948       .  S
C794        C795   1.449       .  A
C795        C796   1.438       .  A
C795       Br802   1.925       .  S
C796        C797   1.417       .  A
C796       Br801   1.951       .  S
C797        C798   1.403       .  A
C798       Br799   1.936       .  S
C803        C804   1.397       .  A
C803        C808   1.446       .  A
C803       Br810   1.939       .  S
C804        C805   1.383       .  A
C805        C806   1.434       .  A
C805       Br812   1.941       .  S
C806        C807   1.487       .  A
C806       Br811   1.919       .  S
C807        C808   1.472       .  A
C808       Br809   1.903       .  S
C813        C814   1.415       .  A
C813        C818   1.410       .  A
C813       Br820   1.931       .  S
C814        C815   1.414       .  A
C815        C816   1.408       .  A
C815       Br822   1.933       .  S
C816        C817   1.410       .  A
C816       Br821   1.929       .  S
C817        C818   1.410       .  A
C818       Br819   1.930       .  S
C823        C824   1.417       .  A
C823        C828   1.410       .  A
C823       Br830   1.932       .  S
C824        C825   1.415       .  A
C825        C826   1.412       .  A
C825       Br832   1.930       .  S
C826        C827   1.411       .  A
C826       Br831   1.930       .  S
C827        C828   1.409       .  A
C828       Br829   1.930       .  S
C833        C834   1.413       .  A
C833        C838   1.409       .  A
C833       Br840   1.933       .  S
C834        C835   1.412       .  A
C835        C836   1.409       .  A
C835       Br842   1.931       .  S
C836        C837   1.412       .  A
C836       Br841   1.929       .  S
C837        C838   1.412       .  A
C838       Br839   1.931       .  S
C843        C844   1.411       .  A
C843        C848   1.409       .  A
C843       Br850   1.930       .  S
C844        C845   1.409       .  A
C845        C846   1.410       .  A
C845       Br852   1.930       .  S
C846        C847   1.418       .  A
C846       Br851   1.933       .  S
C847        C848   1.413       .  A
C848       Br849   1.930       .  S
C853        C854   1.413       .  A
C853        C858   1.408       .  A
C853       Br860   1.931       .  S
C854        C855   1.414       .  A
C855        C856   1.411       .  A
C855       Br862   1.932       .  S
C856        C857   1.414       .  A
C856       Br861   1.932       .  S
C857        C858   1.413       .  A
C858       Br859   1.933       .  S
C863        C864   1.410       .  A
C863        C868   1.408       .  A
C863       Br870   1.931       .  S
C864        C865   1.406       .  A
C865        C866   1.407       .  A
C865       Br872   1.929       .  S
C866        C867   1.415       .  A
C866       Br871   1.931       .  S
C867        C868   1.415       .  A
C868       Br869   1.932       .  S
C873        C874   1.416       .  A
C873        C878   1.444       .  A
C873       Br880   1.948       .  S
C874        C875   1.418       .  A
C875        C876   1.440       .  A
C875       Br882   1.944       .  S
C876        C877   1.442       .  A
C876       Br881   1.923   1_556  S
C877        C878   1.435       .  A
C883        C884   1.389       .  A
C883        C888   1.445       .  A
C883       Br890   1.949       .  S
C884        C885   1.411       .  A
C885        C886   1.443       .  A
C885       Br892   1.932       .  S
C886        C887   1.454       .  A
C886       Br891   1.921   1_556  S
C887        C888   1.486       .  A
C893        C894   1.446       .  A
C893        C898   1.431       .  A
C893       Br900   1.948       .  S
C894        C895   1.405       .  A
C895        C896   1.466       .  A
C895       Br902   1.938       .  S
C896        C897   1.465       .  A
C897        C898   1.447       .  A
C898       Br899   1.926       .  S
C903        C904   1.380       .  A
C903        C908   1.438       .  A
C903       Br910   1.945       .  S
C904        C905   1.388       .  A
C905        C906   1.441       .  A
C905       Br912   1.941       .  S
C906        C907   1.470       .  A
C906       Br911   1.909       .  S
C907        C908   1.478       .  A
C908       Br909   1.915       .  S
C913        C914   1.419       .  A
C913        C918   1.403       .  A
C913       Br920   1.919       .  S
C914        C915   1.537       .  A
C915        C916   1.511       .  A
C915       Br922   1.903       .  S
C916        C917   1.449       .  A
C916       Br921   1.920       .  S
C917        C918   1.390       .  A
C918       Br919   1.938       .  S
C923        C924   1.471       .  A
C923        C928   1.523       .  A
C923       Br930   1.912       .  S
C924        C925   1.390       .  A
C925        C926   1.418       .  A
C925       Br932   1.928       .  S
C926        C927   1.417       .  A
C926       Br931   1.904       .  S
C927        C928   1.510       .  A
C928       Br929   1.916       .  S
