geometry optimzed in LAMMPS
_audit_creation_date              2020-11-30 
_audit_creation_method            'lammps2cif' 
_symmetry_space_group_name_H-M    'P1' 
_symmetry_Int_Tables_number       1 
_symmetry_cell_setting            triclinic 
loop_ 
_symmetry_equiv_pos_as_xyz 
  x,y,z 
_cell_length_a                    33.38506264492462 
_cell_length_b                    20.61277577403175 
_cell_length_c                    22.187628147937133 
_cell_angle_alpha                 89.86944757386286 
_cell_angle_beta                  116.85920626232465 
_cell_angle_gamma                 90.3730911542862 
loop_ 
_atom_site_label 
_atom_site_type_symbol 
_atom_site_fract_x 
_atom_site_fract_y 
_atom_site_fract_z 
_atom_site_charge 
O1          O  0.23487370  0.33210150  0.09135316    -0.57460
C2          C  0.22261245  0.30984546  0.28024190     0.75170
O3          O  0.19278797  0.14295258  0.15566487    -0.58610
C4          C  0.24083434  0.28702936  0.05721060     0.75140
C5          C  0.32439674  0.23391447  0.21780882     0.77540
Cd6        Cd  0.23116077  0.24977004  0.17071954     1.37470
O7          O  0.22041443  0.34405917  0.23099807    -0.57450
O8          O  0.30723005  0.28647582  0.22337954    -0.56260
C9          C  0.15383379  0.16779289  0.12568319     0.77500
O10         O  0.29951815  0.18355295  0.20410484    -0.58630
O11         O  0.22723863  0.24930748  0.27597693    -0.57090
O12         O  0.22932988  0.23017451  0.06482445    -0.57080
O13         O  0.15211379  0.22872344  0.11526844    -0.56250
O14         O  0.35668872  0.34946049  0.72476247    -0.57460
C15         C  0.33495419  0.28773640  0.89764231     0.75170
O16         O  0.27211995  0.18822022  0.74851532    -0.58610
C17         C  0.35251179  0.31638581  0.67380681     0.75140
C18         C  0.41431870  0.16589026  0.82121658     0.77540
Cd19       Cd  0.33960581  0.25452775  0.77834400     1.37470
O20         O  0.34164745  0.33349208  0.86436340    -0.57450
O21         O  0.41604006  0.21549508  0.85616987    -0.56260
C22         C  0.24652637  0.23731631  0.72933559     0.77500
O23         O  0.37795839  0.15803640  0.76760065    -0.58630
O24         O  0.33698785  0.23020700  0.87949822    -0.57090
O25         O  0.33936288  0.25817150  0.67113812    -0.57080
O26         O  0.26317983  0.28991609  0.72139459    -0.56250
C27         C  0.36475887  0.34067031  0.61929792    -0.02130
C28         C  0.36335647  0.62944512  0.61374957    -0.02130
O29         O  0.19063196  0.82812586  0.16143660    -0.57460
C30         C  0.31939310  0.73128627  0.21172676     0.75170
O31         O  0.21192065  0.62388278  0.22894343    -0.58610
C32         C  0.15115636  0.80401628  0.13399458     0.75140
C33         C  0.22599509  0.68240476  0.04685035     0.77540
Cd34       Cd  0.22660772  0.71883344  0.17139996     1.37460
O35         O  0.29601311  0.78246047  0.20141430    -0.57450
O36         O  0.21934531  0.73960736  0.06062853    -0.56260
C37         C  0.21839275  0.65537154  0.28195230     0.77500
O38         O  0.22456062  0.63788713  0.08565625    -0.58630
O39         O  0.30137550  0.67891832  0.21677997    -0.57090
O40         O  0.14821275  0.74332677  0.12208079    -0.57080
O41         O  0.22908900  0.71477617  0.28294325    -0.56250
O42         O  0.27553413  0.78198388  0.74314658    -0.57460
C43         C  0.42025416  0.79850300  0.82641819     0.75170
O44         O  0.33345297  0.63642147  0.86111281    -0.58610
C45         C  0.24929832  0.73295035  0.72619412     0.75140
C46         C  0.35183718  0.65216128  0.67021586     0.77540
Cd47       Cd  0.34216283  0.71335801  0.77946203     1.37470
O48         O  0.38301252  0.81181098  0.77608597    -0.57450
O49         O  0.33670075  0.70897294  0.66751506    -0.56260
C50         C  0.32063599  0.68301837  0.88602178     0.77500
O51         O  0.36017735  0.62018982  0.72388403    -0.58630
O52         O  0.42081740  0.74646990  0.85776569    -0.57090
O53         O  0.26563727  0.67939238  0.72056045    -0.57080
O54         O  0.32805858  0.74007326  0.87199497    -0.56250
C55         C  0.21555193  0.33714137  0.33836081    -0.02130
C56         C  0.20878309  0.62679947  0.33829770    -0.02130
O57         O  0.13428270  0.31843834  0.27700903    -0.57460
C58         C  0.49983875  0.22674893  0.22540361     0.75170
O59         O  0.12677606  0.14546036  0.23093317    -0.58610
C60         C  0.17173338  0.30259708  0.32607940     0.75140
C61         C  0.07614610  0.18827522  0.38878460     0.77540
Cd62       Cd  0.09354474  0.22065055  0.27884965     1.37470
O63         O  0.02237167  0.27945991  0.23460613    -0.57450
O64         O  0.08121748  0.24603942  0.37358005    -0.56260
C65         C  0.10243044  0.16046502  0.16909166     0.77500
O66         O  0.08914390  0.14299626  0.36256843    -0.58630
O67         O  0.02056964  0.17409910  0.23080583    -0.57090
O68         O  0.17181019  0.25063617  0.35693421    -0.57080
O69         O  0.07318799  0.20380749  0.15797188    -0.56250
O70         O  0.44520133  0.32309413  0.65271050    -0.57460
C71         C  0.07163453  0.24875340  0.71923589     0.75170
O72         O  0.46373263  0.12053744  0.72914591    -0.58610
C73         C  0.40574687  0.29983420  0.63130174     0.75140
C74         C  0.98687319  0.16228483  0.55755073     0.77540
Cd75       Cd  0.98059224  0.21371710  0.67245083     1.37460
O76         O  0.04110288  0.28888680  0.68511934    -0.57450
O77         O  0.96068839  0.20810907  0.55328980    -0.56260
C78         C  0.46734847  0.15364585  0.77979008     0.77500
O79         O  0.00177813  0.12937341  0.61150994    -0.58630
O80         O  0.05992654  0.20025590  0.74263952    -0.57090
O81         O  0.40197254  0.23855182  0.62457105    -0.57080
O82         O  0.47775359  0.21299958  0.78001417    -0.56250
C83         C  0.45607555  0.12649421  0.83499780    -0.02130
C84         C  0.46365513  0.83548334  0.83961088    -0.02130
O85         O  0.08053365  0.81691030  0.35716207    -0.57460
C86         C  0.09961548  0.80964486  0.17666935     0.75170
O87         O  0.12869450  0.64700091  0.27114794    -0.58610
C88         C  0.06996709  0.77034207  0.38528736     0.75140
C89         C  0.49417811  0.73583657  0.21764050     0.77540
Cd90       Cd  0.08809780  0.74161678  0.27746699     1.37470
O91         O  0.12437589  0.82081887  0.23924934    -0.57450
O92         O  0.51596379  0.78839285  0.22678325    -0.56260
C93         C  0.16519524  0.66127769  0.32307862     0.77500
O94         O  0.01610702  0.68299855  0.22644432    -0.58630
O95         O  0.07037954  0.76514066  0.16193355    -0.57090
O96         O  0.07902721  0.71321856  0.37441015    -0.57080
O97         O  0.16485646  0.71189188  0.35526942    -0.56250
O98         O  0.98680330  0.83221488  0.59896179    -0.57460
C99         C  0.47278908  0.80785611  0.78391789     0.75170
O100        O  0.44445968  0.64263287  0.65264132    -0.58610
C101        C  0.98645219  0.78792823  0.55900257     0.75140
C102        C  0.07719473  0.73177727  0.72902050     0.77540
Cd103      Cd  0.98377814  0.74891320  0.67785277     1.37470
O104        O  0.46885579  0.84121826  0.73318752    -0.57450
O105        O  0.05992042  0.78551113  0.73122695    -0.56260
C106        C  0.40583790  0.66836450  0.63072240     0.77500
O107        O  0.05166867  0.68214415  0.71461436    -0.58630
O108        O  0.48079714  0.74778287  0.78314694    -0.57090
O109        O  0.97696720  0.73103432  0.56986510    -0.57080
O110        O  0.40455556  0.72996166  0.62939208    -0.56250
C111        C  0.11114755  0.13087260  0.11265419    -0.02130
C112        C  0.10887144  0.84153072  0.12294059    -0.02130
C113        C  0.10272113  0.02318702  0.16467066    -0.25960
C114        C  0.11727831  0.05564749  0.12185483    -0.14030
C115        C  0.13197849  0.01538628  0.08350717     0.36600
C116        C  0.13206569  0.94755240  0.08994786    -0.25410
C117        C  0.11695046  0.91593193  0.13231918    -0.14650
C118        C  0.10347043  0.95604090  0.17206129     0.37680
N119        N  0.08636050  0.93059023  0.21614987    -0.88900
H120        H  0.08681295  0.04875943  0.19032864     0.18800
H121        H  0.14154741  0.91867262  0.05770941     0.18790
N122        N  0.14379940  0.04016683  0.03337381    -0.87930
H123        H  0.05399756  0.94830780  0.20150016     0.36170
H124        H  0.10676684  0.94774011  0.26496063     0.41260
H125        H  0.16912384  0.07501475  0.05407957     0.40880
H126        H  0.11528279  0.05932021  0.99374598     0.35770
C127        C  0.05689995  0.83219754  0.47095883    -0.25960
C128        C  0.04463138  0.78090720  0.42430053    -0.14030
C129        C  0.00733373  0.74080530  0.41489611     0.36600
C130        C  0.48562017  0.75099259  0.45458230    -0.25410
C131        C  0.00047373  0.79768853  0.50559343    -0.14650
C132        C  0.03600309  0.83994016  0.51332742     0.37680
N133        N  0.05263460  0.88747474  0.56648223    -0.88900
H134        H  0.08472551  0.86356205  0.47736896     0.18800
H135        H  0.45826163  0.71851269  0.44820499     0.18790
N136        N  0.49060975  0.68789620  0.36758812    -0.87930
H137        H  0.07829894  0.91508351  0.56421220     0.36170
H138        H  0.06736215  0.86257531  0.61244811     0.41260
H139        H  0.50541627  0.68540929  0.33557274     0.40880
H140        H  0.45657479  0.69628834  0.33639528     0.35770
C141        C  0.49108897  0.84366641  0.96465333    -0.25960
C142        C  0.00048079  0.82175346  0.91259916    -0.14030
C143        C  0.04453035  0.79784226  0.93160392     0.36600
C144        C  0.07761733  0.80279001  0.99899944    -0.25410
C145        C  0.06924796  0.83013388  0.05061203    -0.14650
C146        C  0.02411199  0.85021164  0.03133361     0.37680
N147        N  0.51018437  0.88253298  0.07558068    -0.88900
H148        H  0.45780559  0.86176073  0.95208662     0.18800
H149        H  0.11108466  0.78868443  0.00870195     0.18790
N150        N  0.05804555  0.77366590  0.88318671    -0.87930
H151        H  0.52409069  0.92891854  0.08576443     0.36170
H152        H  0.01798225  0.85579111  0.11924770     0.41260
H153        H  0.06966613  0.72629082  0.89687822     0.40880
H154        H  0.08478802  0.80196514  0.88537897     0.35770
C155        C  0.02817920  0.12190945  0.03151691    -0.25960
C156        C  0.07089961  0.14310361  0.04148678    -0.14030
C157        C  0.07416235  0.16730498  0.98363326     0.36600
C158        C  0.03679681  0.16450163  0.91935156    -0.25410
C159        C  0.99442736  0.13962081  0.90859602    -0.14650
C160        C  0.49064709  0.12052148  0.96782887     0.37680
N161        N  0.44983681  0.09661254  0.96617849    -0.88900
H162        H  0.02407635  0.10343806  0.07418349     0.18800
H163        H  0.04298636  0.17868653  0.87749436     0.18790
N164        N  0.11574700  0.19079025  0.98749336    -0.87930
H165        H  0.44138652  0.05227920  0.94115090     0.36170
H166        H  0.42424625  0.13039561  0.94332076     0.41260
H167        H  0.11104893  0.23872984  0.97024719     0.40880
H168        H  0.12383487  0.16341447  0.95493440     0.35770
C169        C  0.41941384  0.94258765  0.82493347    -0.25960
C170        C  0.45893590  0.91108615  0.83269409    -0.14030
C171        C  0.49501527  0.95215013  0.83785114     0.36600
C172        C  0.49023573  0.01926848  0.83420193    -0.25410
C173        C  0.45110436  0.05107156  0.82690010    -0.14650
C174        C  0.41426813  0.01033852  0.81967079     0.37680
N175        N  0.37120619  0.03372519  0.80848979    -0.88900
H176        H  0.39168123  0.91526545  0.82462391     0.18800
H177        H  0.01923865  0.04781876  0.84033986     0.18790
N178        N  0.03866623  0.92912820  0.85139320    -0.87930
H179        H  0.35413526  0.05142617  0.75932320     0.36170
H180        H  0.37399243  0.06782314  0.84481219     0.41260
H181        H  0.03706169  0.89429121  0.81649659     0.40880
H182        H  0.05518205  0.91234723  0.90086721     0.35770
C183        C  0.48976235  0.20229796  0.45481289    -0.25960
C184        C  0.00381950  0.15554977  0.50616414    -0.14030
C185        C  0.04013877  0.11467133  0.51526433     0.36600
C186        C  0.06304980  0.12457060  0.47560028    -0.25410
C187        C  0.05144727  0.17591215  0.42914772    -0.14650
C188        C  0.01369621  0.21434004  0.41795920     0.37680
N189        N  0.49967027  0.26622750  0.36940399    -0.88900
H190        H  0.46179814  0.23356516  0.44663265     0.18800
H191        H  0.09110524  0.09389898  0.48288191     0.18790
N192        N  0.05477359  0.06511540  0.56623765    -0.87930
H193        H  0.46844364  0.28419577  0.36145171     0.36170
H194        H  0.52242750  0.30454791  0.39040469     0.41260
H195        H  0.02876687  0.03103901  0.55224192     0.40880
H196        H  0.08245084  0.04059087  0.56748182     0.35770
C197        C  0.17338100  0.44421758  0.33191830    -0.25960
C198        C  0.21087990  0.41229471  0.33271800    -0.14030
C199        C  0.24618636  0.45173827  0.33421893     0.36600
C200        C  0.24300248  0.51950203  0.33365619    -0.25410
C201        C  0.20536512  0.55161154  0.33194184    -0.14650
C202        C  0.16963986  0.51203346  0.33012405     0.37680
N203        N  0.13034185  0.53883187  0.33078151    -0.88900
H204        H  0.14695081  0.41736579  0.33621545     0.18800
H205        H  0.27118949  0.54773298  0.33603768     0.18790
N206        N  0.28617200  0.42328271  0.33770598    -0.87930
H207        H  0.12711784  0.52036187  0.37232005     0.36170
H208        H  0.10239224  0.52295461  0.28725519     0.41260
H209        H  0.31351081  0.43976543  0.38162474     0.40880
H210        H  0.29041185  0.43950554  0.29625319     0.35770
C211        C  0.14496920  0.78948972  0.73767441    -0.25960
C212        C  0.12328467  0.72999265  0.73528355    -0.14030
C213        C  0.14274079  0.67204500  0.72774093     0.36600
C214        C  0.18234090  0.67516265  0.72048544    -0.25410
C215        C  0.20369060  0.73473704  0.72185178    -0.14650
C216        C  0.18464423  0.79260735  0.73062172     0.37680
N217        N  0.20554155  0.85430803  0.73261245    -0.88900
H218        H  0.13017254  0.83440465  0.74292901     0.18800
H219        H  0.19728711  0.63020509  0.71571184     0.18790
N220        N  0.12227186  0.61027613  0.72703640    -0.87930
H221        H  0.18772051  0.89189239  0.74089500     0.36170
H222        H  0.20367271  0.86228010  0.68485650     0.41260
H223        H  0.12413296  0.60327573  0.77492612     0.40880
H224        H  0.14041177  0.57256444  0.71969697     0.35770
C225        C  0.38640459  0.79077100  0.21923664    -0.25960
C226        C  0.36405286  0.73150650  0.21251493    -0.14030
C227        C  0.38277392  0.67454619  0.19943807     0.36600
C228        C  0.42338772  0.67813875  0.19568684    -0.25410
C229        C  0.44676886  0.73689162  0.20567935    -0.14650
C230        C  0.42743966  0.79407729  0.21636611     0.37680
N231        N  0.44990087  0.85554824  0.22672905    -0.88900
H232        H  0.37230706  0.83500194  0.22772599     0.18800
H233        H  0.43769405  0.63383413  0.18780050     0.18790
N234        N  0.36169915  0.61207891  0.18964345    -0.87930
H235        H  0.42849094  0.88778907  0.19003800     0.36170
H236        H  0.45565704  0.87315322  0.27415249     0.41260
H237        H  0.32963105  0.61454719  0.14899638     0.40880
H238        H  0.35947596  0.59891464  0.23354749     0.35770
C239        C  0.27028371  0.62041896  0.00031382    -0.25960
C240        C  0.24051353  0.67137514  0.99344341    -0.14030
C241        C  0.23358395  0.72019499  0.94511454     0.36600
C242        C  0.26028426  0.72159304  0.91137375    -0.25410
C243        C  0.29315214  0.67437959  0.92276746    -0.14650
C244        C  0.29672766  0.62139398  0.96521559     0.37680
N245        N  0.32821289  0.57050494  0.97472504    -0.88900
H246        H  0.27518457  0.58211725  0.03642702     0.18800
H247        H  0.25554056  0.76062096  0.87601095     0.18790
N248        N  0.20049558  0.76970045  0.93221270    -0.87930
H249        H  0.32653834  0.53509398  0.00735143     0.36170
H250        H  0.36044652  0.59075954  0.99868106     0.41260
H251        H  0.16901850  0.74696491  0.91154422     0.40880
H252        H  0.20001594  0.80250741  0.89587591     0.35770
C253        C  0.28001667  0.62931313  0.53472427    -0.25960
C254        C  0.32303731  0.64867124  0.54435317    -0.14030
C255        C  0.32619294  0.67213516  0.48568181     0.36600
C256        C  0.28876966  0.66807345  0.42161777    -0.25410
C257        C  0.24659498  0.64283594  0.41142391    -0.14650
C258        C  0.24268478  0.62635326  0.47116822     0.37680
N259        N  0.20251554  0.60098173  0.47044341    -0.88900
H260        H  0.27573058  0.61071205  0.57718326     0.18800
H261        H  0.29503487  0.67991846  0.37923836     0.18790
N262        N  0.36761205  0.69121775  0.48591080    -0.87930
H263        H  0.19686742  0.55435571  0.45058244     0.36170
H264        H  0.17534699  0.63144355  0.44417868     0.41260
H265        H  0.39151834  0.65470762  0.50687326     0.40880
H266        H  0.37874715  0.73513421  0.51138938     0.35770
C267        C  0.24579783  0.34350406  0.46519160    -0.25960
C268        C  0.25377299  0.32217074  0.41109740    -0.14030
C269        C  0.29768100  0.29664880  0.42904567     0.36600
C270        C  0.33092259  0.29806618  0.49633661    -0.25410
C271        C  0.32384210  0.32473207  0.54918343    -0.14650
C272        C  0.27975260  0.34662206  0.53253135     0.37680
N273        N  0.26968096  0.37445749  0.58350941    -0.88900
H274        H  0.21294747  0.36233373  0.45395209     0.18800
H275        H  0.36400136  0.28216361  0.50557415     0.18790
N276        N  0.31186784  0.27035059  0.38224187    -0.87930
H277        H  0.23554022  0.38531604  0.56383889     0.36170
H278        H  0.28685427  0.41866360  0.59836092     0.41260
H279        H  0.30769555  0.30346404  0.34436230     0.40880
H280        H  0.29618516  0.22576471  0.36404429     0.35770
C281        C  0.36078426  0.44847341  0.56124644    -0.25960
C282        C  0.37577745  0.41499668  0.62274442    -0.14030
C283        C  0.40043048  0.45316705  0.68205838     0.36600
C284        C  0.39798803  0.52174342  0.67765384    -0.25410
C285        C  0.37258318  0.55449696  0.61584283    -0.14650
C286        C  0.35870226  0.51565878  0.55678377     0.37680
N287        N  0.34344105  0.54259319  0.49088608    -0.88900
H288        H  0.34948747  0.42273963  0.51400715     0.18800
H289        H  0.41661076  0.54936867  0.72342365     0.18790
N290        N  0.43031196  0.42578017  0.74633250    -0.87930
H291        H  0.31098877  0.52505812  0.46106926     0.36170
H292        H  0.36426009  0.52661379  0.47022354     0.41260
H293        H  0.43306506  0.37566655  0.74416898     0.40880
H294        H  0.41783436  0.43627719  0.78075123     0.35770
C295        C  0.15053226  0.21197603  0.77233257    -0.25960
C296        C  0.11761725  0.25293703  0.72561411    -0.14030
C297        C  0.12696675  0.28715431  0.67794393     0.36600
C298        C  0.16861752  0.27864226  0.67769719    -0.25410
C299        C  0.20089749  0.23657003  0.72354344    -0.14650
C300        C  0.19192801  0.20372063  0.77183554     0.37680
N301        N  0.22541286  0.16383655  0.82221530    -0.88900
H302        H  0.14391024  0.18524053  0.80904249     0.18800
H303        H  0.17612795  0.30539344  0.64187202     0.18790
N304        N  0.09383717  0.32859977  0.62853831    -0.87930
H305        H  0.21200786  0.11717990  0.81844161     0.36170
H306        H  0.23231126  0.18251166  0.86973062     0.41260
H307        H  0.08977041  0.36843683  0.65429326     0.40880
H308        H  0.10530497  0.34716390  0.59518240     0.35770
C309        C  0.42999266  0.28489768  0.20461900    -0.25960
C310        C  0.45284074  0.22602386  0.21566768    -0.14030
C311        C  0.43312479  0.16928127  0.22771006     0.36600
C312        C  0.39192859  0.17363883  0.23028845    -0.25410
C313        C  0.36975305  0.23296559  0.22111178    -0.14650
C314        C  0.38906906  0.28917698  0.20710024     0.37700
N315        N  0.36792424  0.35141412  0.19397618    -0.88900
H316        H  0.44455871  0.32868748  0.19548851     0.18800
H317        H  0.37701216  0.13026392  0.23947957     0.18790
N318        N  0.45540569  0.10769231  0.23940026    -0.87930
H319        H  0.36488653  0.36656294  0.23662627     0.36170
H320        H  0.33621911  0.34771170  0.15251716     0.41260
H321        H  0.45482781  0.09320157  0.19388473     0.40880
H322        H  0.43770170  0.07213472  0.25141896     0.35770
C323        C  0.29202038  0.35046179  0.94513953    -0.25960
C324        C  0.32051131  0.29827929  0.95062681    -0.14030
C325        C  0.32592157  0.24777131  0.99659742     0.36600
C326        C  0.29899349  0.24644721  0.02967459    -0.25410
C327        C  0.26769056  0.29547345  0.02010868    -0.14650
C328        C  0.26601001  0.34993571  0.98040349     0.37680
N329        N  0.23688257  0.40337632  0.97242775    -0.88900
H330        H  0.28772493  0.38961543  0.91010649     0.18800
H331        H  0.30250391  0.20633942  0.06338146     0.18790
N332        N  0.35749663  0.19645976  0.00736524    -0.87930
H333        H  0.24628910  0.42416313  0.01988014     0.36170
H334        H  0.20406641  0.38559232  0.95411642     0.41260
H335        H  0.38962733  0.21717166  0.02909977     0.40880
H336        H  0.35690247  0.16263037  0.04215861     0.35770
O337        O  0.73487372  0.33210150  0.09135319    -0.57460
C338        C  0.72261245  0.30984545  0.28024192     0.75170
O339        O  0.69278797  0.14295257  0.15566488    -0.58610
C340        C  0.74083437  0.28702937  0.05721063     0.75140
C341        C  0.82439674  0.23391446  0.21780885     0.77540
Cd342      Cd  0.73116077  0.24977004  0.17071956     1.37470
O343        O  0.72041443  0.34405917  0.23099809    -0.57450
O344        O  0.80723006  0.28647581  0.22337958    -0.56260
C345        C  0.65383380  0.16779289  0.12568319     0.77500
O346        O  0.79951816  0.18355295  0.20410486    -0.58630
O347        O  0.72723863  0.24930748  0.27597695    -0.57090
O348        O  0.72932991  0.23017451  0.06482448    -0.57080
O349        O  0.65211379  0.22872343  0.11526844    -0.56250
O350        O  0.85668872  0.34946050  0.72476248    -0.57460
C351        C  0.83495421  0.28773642  0.89764234     0.75170
O352        O  0.77211995  0.18822024  0.74851537    -0.58610
C353        C  0.85251179  0.31638581  0.67380683     0.75140
C354        C  0.91431870  0.16589027  0.82121659     0.77540
Cd355      Cd  0.83960581  0.25452776  0.77834402     1.37470
O356        O  0.84164746  0.33349210  0.86436342    -0.57450
O357        O  0.91604006  0.21549509  0.85616988    -0.56260
C358        C  0.74652637  0.23731633  0.72933562     0.77500
O359        O  0.87795839  0.15803640  0.76760066    -0.58630
O360        O  0.83698787  0.23020702  0.87949825    -0.57090
O361        O  0.83936289  0.25817151  0.67113814    -0.57080
O362        O  0.76317984  0.28991611  0.72139460    -0.56250
C363        C  0.86475887  0.34067031  0.61929793    -0.02130
C364        C  0.86335647  0.62944511  0.61374958    -0.02130
O365        O  0.69063197  0.82812586  0.16143662    -0.57460
C366        C  0.81939311  0.73128624  0.21172685     0.75170
O367        O  0.71192065  0.62388277  0.22894345    -0.58610
C368        C  0.65115636  0.80401628  0.13399460     0.75140
C369        C  0.72599512  0.68240480  0.04685039     0.77540
Cd370      Cd  0.72660773  0.71883344  0.17139999     1.37460
O371        O  0.79601313  0.78246044  0.20141442    -0.57450
O372        O  0.71934537  0.73960740  0.06062860    -0.56260
C373        C  0.71839274  0.65537153  0.28195231     0.77500
O374        O  0.72456061  0.63788716  0.08565625    -0.58630
O375        O  0.80137550  0.67891829  0.21678001    -0.57090
O376        O  0.64821276  0.74332677  0.12208080    -0.57080
O377        O  0.72908899  0.71477617  0.28294327    -0.56250
O378        O  0.77553414  0.78198386  0.74314662    -0.57460
C379        C  0.92025416  0.79850300  0.82641818     0.75170
O380        O  0.83345298  0.63642147  0.86111283    -0.58610
C381        C  0.74929833  0.73295033  0.72619418     0.75140
C382        C  0.85183718  0.65216128  0.67021587     0.77540
Cd383      Cd  0.84216284  0.71335800  0.77946205     1.37470
O384        O  0.88301252  0.81181097  0.77608597    -0.57450
O385        O  0.83670074  0.70897293  0.66751507    -0.56260
C386        C  0.82063603  0.68301838  0.88602182     0.77500
O387        O  0.86017736  0.62018982  0.72388404    -0.58630
O388        O  0.92081741  0.74646990  0.85776568    -0.57090
O389        O  0.76563728  0.67939236  0.72056050    -0.57080
O390        O  0.82805863  0.74007326  0.87199502    -0.56250
C391        C  0.71555193  0.33714137  0.33836082    -0.02130
C392        C  0.70878308  0.62679946  0.33829772    -0.02130
O393        O  0.63428270  0.31843832  0.27700904    -0.57460
C394        C  0.99983874  0.22674894  0.22540361     0.75170
O395        O  0.62677607  0.14546036  0.23093317    -0.58610
C396        C  0.67173338  0.30259706  0.32607941     0.75140
C397        C  0.57614610  0.18827519  0.38878460     0.77540
Cd398      Cd  0.59354474  0.22065054  0.27884965     1.37470
O399        O  0.52237168  0.27945990  0.23460614    -0.57450
O400        O  0.58121748  0.24603939  0.37358006    -0.56260
C401        C  0.60243044  0.16046502  0.16909166     0.77500
O402        O  0.58914389  0.14299623  0.36256842    -0.58630
O403        O  0.52056963  0.17409909  0.23080582    -0.57090
O404        O  0.67181019  0.25063616  0.35693422    -0.57080
O405        O  0.57318799  0.20380748  0.15797188    -0.56250
O406        O  0.94520133  0.32309413  0.65271051    -0.57460
C407        C  0.57163452  0.24875344  0.71923587     0.75170
O408        O  0.96373262  0.12053745  0.72914591    -0.58610
C409        C  0.90574687  0.29983420  0.63130175     0.75140
C410        C  0.48687320  0.16228479  0.55755074     0.77540
Cd411      Cd  0.48059224  0.21371709  0.67245082     1.37460
O412        O  0.54110286  0.28888681  0.68511927    -0.57450
O413        O  0.46068837  0.20810899  0.55328978    -0.56260
C414        C  0.96734847  0.15364586  0.77979008     0.77500
O415        O  0.50177817  0.12937340  0.61150998    -0.58630
O416        O  0.55992654  0.20025596  0.74263955    -0.57090
O417        O  0.90197254  0.23855182  0.62457106    -0.57080
O418        O  0.97775359  0.21299958  0.78001417    -0.56250
C419        C  0.95607554  0.12649422  0.83499780    -0.02130
C420        C  0.96365513  0.83548335  0.83961086    -0.02130
O421        O  0.58053365  0.81691032  0.35716208    -0.57460
C422        C  0.59961549  0.80964486  0.17666936     0.75170
O423        O  0.62869449  0.64700091  0.27114795    -0.58610
C424        C  0.56996708  0.77034210  0.38528735     0.75140
C425        C  0.99417812  0.73583656  0.21764057     0.77540
Cd426      Cd  0.58809779  0.74161679  0.27746699     1.37470
O427        O  0.62437589  0.82081887  0.23924935    -0.57450
O428        O  0.01596380  0.78839284  0.22678328    -0.56260
C429        C  0.66519523  0.66127768  0.32307864     0.77500
O430        O  0.51610701  0.68299857  0.22644427    -0.58630
O431        O  0.57037954  0.76514067  0.16193356    -0.57090
O432        O  0.57902716  0.71321858  0.37441012    -0.57080
O433        O  0.66485644  0.71189187  0.35526944    -0.56250
O434        O  0.48680336  0.83221490  0.59896187    -0.57460
C435        C  0.97278908  0.80785611  0.78391787     0.75170
O436        O  0.94445967  0.64263287  0.65264131    -0.58610
C437        C  0.48645222  0.78792827  0.55900263     0.75140
C438        C  0.57719474  0.73177723  0.72902057     0.77540
Cd439      Cd  0.48377815  0.74891320  0.67785280     1.37470
O440        O  0.96885578  0.84121827  0.73318750    -0.57450
O441        O  0.55992044  0.78551108  0.73122705    -0.56260
C442        C  0.90583789  0.66836451  0.63072240     0.77500
O443        O  0.55166867  0.68214411  0.71461437    -0.58630
O444        O  0.98079714  0.74778288  0.78314692    -0.57090
O445        O  0.47696721  0.73103436  0.56986513    -0.57080
O446        O  0.90455555  0.72996166  0.62939208    -0.56250
C447        C  0.61114756  0.13087260  0.11265419    -0.02130
C448        C  0.60887144  0.84153072  0.12294061    -0.02130
C449        C  0.60272113  0.02318702  0.16467067    -0.25960
C450        C  0.61727831  0.05564749  0.12185483    -0.14030
C451        C  0.63197849  0.01538627  0.08350717     0.36600
C452        C  0.63206569  0.94755240  0.08994787    -0.25410
C453        C  0.61695047  0.91593193  0.13231919    -0.14650
C454        C  0.60347043  0.95604090  0.17206130     0.37680
N455        N  0.58636050  0.93059023  0.21614988    -0.88900
H456        H  0.58681295  0.04875943  0.19032864     0.18800
H457        H  0.64154742  0.91867262  0.05770942     0.18790
N458        N  0.64379940  0.04016682  0.03337381    -0.87930
H459        H  0.55399756  0.94830780  0.20150018     0.36170
H460        H  0.60676685  0.94774011  0.26496064     0.41260
H461        H  0.66912384  0.07501475  0.05407957     0.40880
H462        H  0.61528279  0.05932021  0.99374598     0.35770
C463        C  0.55690000  0.83219754  0.47095890    -0.25960
C464        C  0.54463137  0.78090726  0.42430054    -0.14030
C465        C  0.50733369  0.74080542  0.41489608     0.36600
C466        C  0.98562019  0.75099247  0.45458230    -0.25410
C467        C  0.50047376  0.79768860  0.50559348    -0.14650
C468        C  0.53600315  0.83994017  0.51332751     0.37680
N469        N  0.55263472  0.88747469  0.56648238    -0.88900
H470        H  0.58472558  0.86356201  0.47736906     0.18800
H471        H  0.95826168  0.71851252  0.44820502     0.18790
N472        N  0.99060984  0.68789603  0.36758820    -0.87930
H473        H  0.57829907  0.91508342  0.56421238     0.36170
H474        H  0.56736224  0.86257520  0.61244824     0.41260
H475        H  0.00541635  0.68540914  0.33557281     0.40880
H476        H  0.95657487  0.69628808  0.33639536     0.35770
C477        C  0.99108897  0.84366642  0.96465331    -0.25960
C478        C  0.50048079  0.82175345  0.91259917    -0.14030
C479        C  0.54453035  0.79784225  0.93160393     0.36600
C480        C  0.57761733  0.80279000  0.99899945    -0.25410
C481        C  0.56924796  0.83013388  0.05061205    -0.14650
C482        C  0.52411199  0.85021164  0.03133362     0.37680
N483        N  0.01018437  0.88253298  0.07558066    -0.88900
H484        H  0.95780559  0.86176073  0.95208660     0.18800
H485        H  0.61108466  0.78868442  0.00870196     0.18790
N486        N  0.55804554  0.77366589  0.88318673    -0.87930
H487        H  0.02409069  0.92891854  0.08576442     0.36170
H488        H  0.51798226  0.85579112  0.11924772     0.41260
H489        H  0.56966613  0.72629081  0.89687824     0.40880
H490        H  0.58478802  0.80196512  0.88537898     0.35770
C491        C  0.52817920  0.12190945  0.03151691    -0.25960
C492        C  0.57089961  0.14310361  0.04148678    -0.14030
C493        C  0.57416236  0.16730498  0.98363326     0.36600
C494        C  0.53679682  0.16450163  0.91935156    -0.25410
C495        C  0.49442736  0.13962081  0.90859602    -0.14650
C496        C  0.99064709  0.12052148  0.96782887     0.37680
N497        N  0.94983681  0.09661253  0.96617849    -0.88900
H498        H  0.52407635  0.10343806  0.07418349     0.18800
H499        H  0.54298636  0.17868653  0.87749436     0.18790
N500        N  0.61574700  0.19079025  0.98749336    -0.87930
H501        H  0.94138652  0.05227919  0.94115089     0.36170
H502        H  0.92424624  0.13039560  0.94332076     0.41260
H503        H  0.61104893  0.23872983  0.97024719     0.40880
H504        H  0.62383487  0.16341447  0.95493441     0.35770
C505        C  0.91941384  0.94258765  0.82493346    -0.25960
C506        C  0.95893589  0.91108615  0.83269407    -0.14030
C507        C  0.99501526  0.95215014  0.83785113     0.36600
C508        C  0.99023573  0.01926848  0.83420192    -0.25410
C509        C  0.95110436  0.05107156  0.82690010    -0.14650
C510        C  0.91426813  0.01033853  0.81967079     0.37680
N511        N  0.87120619  0.03372519  0.80848979    -0.88900
H512        H  0.89168122  0.91526545  0.82462390     0.18800
H513        H  0.51923866  0.04781875  0.84033987     0.18790
N514        N  0.53866623  0.92912819  0.85139322    -0.87930
H515        H  0.85413526  0.05142617  0.75932320     0.36170
H516        H  0.87399242  0.06782314  0.84481219     0.41260
H517        H  0.53706170  0.89429119  0.81649662     0.40880
H518        H  0.55518205  0.91234723  0.90086724     0.35770
C519        C  0.98976235  0.20229800  0.45481288    -0.25960
C520        C  0.50381951  0.15554973  0.50616415    -0.14030
C521        C  0.54013877  0.11467128  0.51526433     0.36600
C522        C  0.56304980  0.12457056  0.47560028    -0.25410
C523        C  0.55144727  0.17591211  0.42914772    -0.14650
C524        C  0.51369621  0.21434000  0.41795920     0.37680
N525        N  0.99967027  0.26622754  0.36940398    -0.88900
H526        H  0.96179814  0.23356520  0.44663264     0.18800
H527        H  0.59110524  0.09389895  0.48288191     0.18790
N528        N  0.55477359  0.06511535  0.56623764    -0.87930
H529        H  0.96844365  0.28419582  0.36145170     0.36170
H530        H  0.02242750  0.30454794  0.39040469     0.41260
H531        H  0.52876687  0.03103897  0.55224192     0.40880
H532        H  0.58245084  0.04059082  0.56748181     0.35770
C533        C  0.67338099  0.44421757  0.33191831    -0.25960
C534        C  0.71087990  0.41229470  0.33271801    -0.14030
C535        C  0.74618635  0.45173826  0.33421895     0.36600
C536        C  0.74300247  0.51950202  0.33365620    -0.25410
C537        C  0.70536511  0.55161153  0.33194185    -0.14650
C538        C  0.66963985  0.51203345  0.33012406     0.37680
N539        N  0.63034184  0.53883186  0.33078151    -0.88900
H540        H  0.64695081  0.41736578  0.33621546     0.18800
H541        H  0.77118948  0.54773298  0.33603769     0.18790
N542        N  0.78617199  0.42328271  0.33770599    -0.87930
H543        H  0.62711783  0.52036186  0.37232006     0.36170
H544        H  0.60239223  0.52295459  0.28725520     0.41260
H545        H  0.81351080  0.43976543  0.38162476     0.40880
H546        H  0.79041185  0.43950554  0.29625321     0.35770
C547        C  0.64496923  0.78948967  0.73767455    -0.25960
C548        C  0.62328469  0.72999261  0.73528364    -0.14030
C549        C  0.64274080  0.67204496  0.72774095     0.36600
C550        C  0.68234090  0.67516262  0.72048546    -0.25410
C551        C  0.70369061  0.73473701  0.72185186    -0.14650
C552        C  0.68464427  0.79260732  0.73062186     0.37680
N553        N  0.70554160  0.85430800  0.73261265    -0.88900
H554        H  0.63017258  0.83440459  0.74292920     0.18800
H555        H  0.69728710  0.63020507  0.71571182     0.18790
N556        N  0.62227185  0.61027609  0.72703637    -0.87930
H557        H  0.68772057  0.89189235  0.74089525     0.36170
H558        H  0.70367275  0.86228011  0.68485670     0.41260
H559        H  0.62413295  0.60327565  0.77492609     0.40880
H560        H  0.64041175  0.57256441  0.71969690     0.35770
C561        C  0.88640464  0.79077095  0.21923686    -0.25960
C562        C  0.86405289  0.73150646  0.21251505    -0.14030
C563        C  0.88277392  0.67454617  0.19943812     0.36600
C564        C  0.92338773  0.67813874  0.19568690    -0.25410
C565        C  0.94676888  0.73689160  0.20567948    -0.14650
C566        C  0.92743971  0.79407726  0.21636634     0.37680
N567        N  0.94990095  0.85554818  0.22672939    -0.88900
H568        H  0.87230713  0.83500188  0.22772628     0.18800
H569        H  0.93769404  0.63383414  0.18780048     0.18790
N570        N  0.86169913  0.61207890  0.18964342    -0.87930
H571        H  0.92849105  0.88778908  0.19003840     0.36170
H572        H  0.95565713  0.87315309  0.27415286     0.41260
H573        H  0.82963103  0.61454723  0.14899635     0.40880
H574        H  0.85947593  0.59891458  0.23354744     0.35770
C575        C  0.77028372  0.62041898  0.00031384    -0.25960
C576        C  0.74051357  0.67137519  0.99344345    -0.14030
C577        C  0.73358401  0.72019506  0.94511462     0.36600
C578        C  0.76028432  0.72159310  0.91137383    -0.25410
C579        C  0.79315218  0.67437962  0.92276752    -0.14650
C580        C  0.79672767  0.62139399  0.96521561     0.37680
N581        N  0.82821288  0.57050492  0.97472502    -0.88900
H582        H  0.77518456  0.58211726  0.03642701     0.18800
H583        H  0.75554064  0.76062104  0.87601105     0.18790
N584        N  0.70049566  0.76970055  0.93221280    -0.87930
H585        H  0.82653830  0.53509395  0.00735139     0.36170
H586        H  0.86044651  0.59075949  0.99868107     0.41260
H587        H  0.66901857  0.74696504  0.91154430     0.40880
H588        H  0.70001604  0.80250752  0.89587604     0.35770
C589        C  0.78001667  0.62931311  0.53472428    -0.25960
C590        C  0.82303730  0.64867123  0.54435318    -0.14030
C591        C  0.82619293  0.67213516  0.48568181     0.36600
C592        C  0.78876965  0.66807345  0.42161778    -0.25410
C593        C  0.74659497  0.64283593  0.41142392    -0.14650
C594        C  0.74268477  0.62635324  0.47116823     0.37680
N595        N  0.70251553  0.60098171  0.47044343    -0.88900
H596        H  0.77573058  0.61071203  0.57718327     0.18800
H597        H  0.79503485  0.67991846  0.37923837     0.18790
N598        N  0.86761203  0.69121775  0.48591080    -0.87930
H599        H  0.69686741  0.55435569  0.45058245     0.36170
H600        H  0.67534699  0.63144353  0.44417870     0.41260
H601        H  0.89151832  0.65470762  0.50687326     0.40880
H602        H  0.87874713  0.73513421  0.51138938     0.35770
C603        C  0.74579782  0.34350406  0.46519161    -0.25960
C604        C  0.75377299  0.32217073  0.41109742    -0.14030
C605        C  0.79768100  0.29664880  0.42904568     0.36600
C606        C  0.83092259  0.29806617  0.49633663    -0.25410
C607        C  0.82384210  0.32473207  0.54918345    -0.14650
C608        C  0.77975260  0.34662206  0.53253136     0.37680
N609        N  0.76968096  0.37445749  0.58350942    -0.88900
H610        H  0.71294747  0.36233372  0.45395210     0.18800
H611        H  0.86400136  0.28216361  0.50557416     0.18790
N612        N  0.81186784  0.27035058  0.38224188    -0.87930
H613        H  0.73554022  0.38531604  0.56383891     0.36170
H614        H  0.78685427  0.41866360  0.59836093     0.41260
H615        H  0.80769555  0.30346404  0.34436231     0.40880
H616        H  0.79618516  0.22576471  0.36404430     0.35770
C617        C  0.86078426  0.44847341  0.56124645    -0.25960
C618        C  0.87577745  0.41499668  0.62274443    -0.14030
C619        C  0.90043048  0.45316705  0.68205839     0.36600
C620        C  0.89798803  0.52174342  0.67765385    -0.25410
C621        C  0.87258318  0.55449696  0.61584284    -0.14650
C622        C  0.85870226  0.51565878  0.55678378     0.37680
N623        N  0.84344105  0.54259318  0.49088609    -0.88900
H624        H  0.84948747  0.42273963  0.51400716     0.18800
H625        H  0.91661077  0.54936867  0.72342366     0.18790
N626        N  0.93031196  0.42578018  0.74633251    -0.87930
H627        H  0.81098878  0.52505812  0.46106926     0.36170
H628        H  0.86426009  0.52661379  0.47022355     0.41260
H629        H  0.93306506  0.37566655  0.74416899     0.40880
H630        H  0.91783436  0.43627719  0.78075124     0.35770
C631        C  0.65053227  0.21197614  0.77233262    -0.25960
C632        C  0.61761724  0.25293707  0.72561409    -0.14030
C633        C  0.62696674  0.28715428  0.67794387     0.36600
C634        C  0.66861751  0.27864224  0.67769715    -0.25410
C635        C  0.70089749  0.23657007  0.72354346    -0.14650
C636        C  0.69192802  0.20372074  0.77183561     0.37680
N637        N  0.72541289  0.16383673  0.82221544    -0.88900
H638        H  0.64391025  0.18524070  0.80904258     0.18800
H639        H  0.67612793  0.30539336  0.64187194     0.18790
N640        N  0.59383713  0.32859967  0.62853818    -0.87930
H641        H  0.71200791  0.11718007  0.81844181     0.36170
H642        H  0.73231128  0.18251191  0.86973073     0.41260
H643        H  0.58977036  0.36843677  0.65429305     0.40880
H644        H  0.60530493  0.34716375  0.59518224     0.35770
C645        C  0.92999267  0.28489769  0.20461903    -0.25960
C646        C  0.95284074  0.22602386  0.21566769    -0.14030
C647        C  0.93312478  0.16928127  0.22771005     0.36600
C648        C  0.89192859  0.17363882  0.23028845    -0.25410
C649        C  0.86975305  0.23296558  0.22111180    -0.14650
C650        C  0.88906907  0.28917698  0.20710028     0.37700
N651        N  0.86792426  0.35141413  0.19397625    -0.88900
H652        H  0.94455872  0.32868749  0.19548856     0.18800
H653        H  0.87701216  0.13026390  0.23947955     0.18790
N654        N  0.95540568  0.10769230  0.23940021    -0.87930
H655        H  0.86488655  0.36656293  0.23662635     0.36170
H656        H  0.83621913  0.34771172  0.15251723     0.41260
H657        H  0.95482780  0.09320158  0.19388467     0.40880
H658        H  0.93770169  0.07213471  0.25141890     0.35770
C659        C  0.79202040  0.35046181  0.94513956    -0.25960
C660        C  0.82051134  0.29827931  0.95062686    -0.14030
C661        C  0.82592161  0.24777135  0.99659747     0.36600
C662        C  0.79899353  0.24644724  0.02967464    -0.25410
C663        C  0.76769060  0.29547346  0.02010872    -0.14650
C664        C  0.76601003  0.34993573  0.98040353     0.37680
N665        N  0.73688259  0.40337633  0.97242778    -0.88900
H666        H  0.78772494  0.38961544  0.91010652     0.18800
H667        H  0.80250396  0.20633945  0.06338152     0.18790
N668        N  0.85749668  0.19645980  0.00736529    -0.87930
H669        H  0.74628911  0.42416313  0.01988016     0.36170
H670        H  0.70406643  0.38559232  0.95411645     0.41260
H671        H  0.88962737  0.21717171  0.02909981     0.40880
H672        H  0.85690253  0.16263042  0.04215868     0.35770
loop_ 
_geom_bond_atom_site_label_1 
_geom_bond_atom_site_label_2 
_geom_bond_distance 
_geom_bond_site_symmetry_2 
_ccdc_geom_bond_type 
O1            C4   1.272       .  A
O1           Cd6   2.485       .  S
C2           O11   1.267       .  A
C2            O7   1.273       .  A
C2           C55   1.521       .  S
O3            C9   1.273       .  A
O3           Cd6   2.486       .  S
C4           O12   1.265       .  A
C4          C327   1.475       .  S
C5           O10   1.274       .  A
C5            O8   1.261       .  A
C5          C313   1.483       .  S
Cd6          O13   2.392       .  S
Cd6          O12   2.358       .  S
Cd6          O11   2.397       .  S
Cd6           O7   2.480       .  S
Cd6          O10   2.476       .  S
Cd6           O8   2.384       .  S
C9           O13   1.273       .  A
C9          C111   1.519       .  S
O14          C17   1.274       .  A
O14         Cd19   2.481       .  S
C15          O24   1.265       .  A
C15          O20   1.276       .  A
C15         C324   1.475       .  S
O16          C22   1.271       .  A
O16         Cd19   2.449       .  S
C17          O25   1.267       .  A
C17          C27   1.524       .  S
C18          O23   1.268       .  A
C18          O21   1.270       .  A
C18          C83   1.525       .  S
Cd19         O26   2.397       .  S
Cd19         O25   2.376       .  S
Cd19         O24   2.338       .  S
Cd19         O20   2.488       .  S
Cd19         O23   2.442       .  S
Cd19         O21   2.486       .  S
C22          O26   1.263       .  A
C22         C299   1.470       .  S
C27          C73   1.529       .  S
C27         C271   1.572       .  S
C27         C282   1.567       .  S
C28          C46   1.542       .  S
C28         C106   1.517       .  S
C28         C254   1.572       .  S
C28         C285   1.574       .  S
O29          C32   1.274       .  A
O29         Cd34   2.522       .  S
C30          O39   1.262       .  A
C30          O35   1.274       .  A
C30         C226   1.483       .  S
O31          C37   1.274       .  A
O31         Cd34   2.499       .  S
C32          O40   1.273       .  A
C32         C112   1.533       .  S
C33          O38   1.272       .  A
C33          O36   1.265       .  A
C33         C240   1.487   1_554  S
Cd34         O41   2.440       .  S
Cd34         O40   2.394       .  S
Cd34         O39   2.382       .  S
Cd34         O35   2.470       .  S
Cd34         O38   2.511       .  S
Cd34         O36   2.396       .  S
C37          O41   1.271       .  A
C37          C56   1.539       .  S
O42          C45   1.274       .  A
O42         Cd47   2.452       .  S
C43          O52   1.273       .  A
C43          O48   1.271       .  A
C43          C84   1.539       .  S
O44          C50   1.278       .  A
O44         Cd47   2.518       .  S
C45          O53   1.266       .  A
C45         C215   1.482       .  S
C46          O51   1.276       .  A
C46          O49   1.269       .  A
Cd47         O54   2.371       .  S
Cd47         O53   2.385       .  S
Cd47         O52   2.498       .  S
Cd47         O48   2.458       .  S
Cd47         O51   2.503       .  S
Cd47         O49   2.409       .  S
C50          O54   1.267       .  A
C50         C243   1.487       .  S
C55          C60   1.532       .  S
C55         C198   1.557       .  S
C55         C268   1.572       .  S
C56          C93   1.518       .  S
C56         C201   1.555       .  S
C56         C257   1.575       .  S
O57          C60   1.276       .  A
O57         Cd62   2.435       .  S
C58         O403   1.267       .  A
C58         O399   1.281       .  A
C58         C310   1.484       .  S
O59          C65   1.278       .  A
O59         Cd62   2.421       .  S
C60          O68   1.269       .  A
C61          O66   1.278       .  A
C61          O64   1.268       .  A
C61         C187   1.487       .  S
Cd62         O69   2.476       .  S
Cd62         O68   2.471       .  S
Cd62         O67   2.371       .  S
Cd62         O63   2.450       .  S
Cd62         O66   2.503       .  S
Cd62         O64   2.377       .  S
O63         C394   1.281   1_455  A
C65          O69   1.267       .  A
C65         C111   1.536       .  S
O67         C394   1.267   1_455  A
O70          C73   1.272       .  A
O70        Cd411   2.497       .  S
C71          O80   1.264       .  A
C71          O76   1.268       .  A
C71         C296   1.479       .  S
O72          C78   1.274       .  A
O72        Cd411   2.491       .  S
C73          O81   1.271       .  A
C74          O79   1.266   1_655  A
C74          O77   1.265       .  A
C74         C184   1.491   1_655  S
Cd75         O80   2.408   1_655  S
Cd75         O76   2.451   1_655  S
Cd75         O79   2.498   1_655  S
Cd75         O77   2.420       .  S
Cd75        O406   2.497       .  S
Cd75        O408   2.491       .  S
Cd75        O418   2.431       .  S
Cd75        O417   2.403       .  S
C78          O82   1.269       .  A
C78          C83   1.538       .  S
O81        Cd411   2.403       .  S
O82        Cd411   2.431       .  S
C83         C173   1.565       .  S
C83         C495   1.577       .  S
C84          C99   1.513       .  S
C84         C170   1.568       .  S
C84         C478   1.555       .  S
O85          C88   1.276       .  A
O85         Cd90   2.454       .  S
C86          O95   1.266       .  A
C86          O91   1.275       .  A
C86         C112   1.508       .  S
O87          C93   1.276       .  A
O87         Cd90   2.422       .  S
C88          O96   1.268       .  A
C88         C128   1.475       .  S
C89          O92   1.265       .  A
C89         O430   1.281       .  A
C89         C229   1.482       .  S
Cd90         O97   2.437       .  S
Cd90         O96   2.375       .  S
Cd90         O95   2.405       .  S
Cd90         O91   2.397       .  S
Cd90         O94   2.455       .  S
Cd90        O428   2.360       .  S
O92        Cd426   2.360       .  S
C93          O97   1.269       .  A
O94         C425   1.281   1_455  A
O98         C101   1.270       .  A
O98        Cd103   2.483       .  S
C99         O108   1.270       .  A
C99         O104   1.273       .  A
O100        C106   1.273       .  A
O100       Cd439   2.478       .  S
C101        O109   1.264       .  A
C101        C131   1.471   1_655  S
C102        O107   1.272       .  A
C102        O105   1.263       .  A
C102        C212   1.482       .  S
Cd103       O109   2.332       .  S
Cd103       O107   2.462   1_655  S
Cd103       O105   2.386   1_655  S
Cd103       O436   2.478       .  S
Cd103       O446   2.392       .  S
Cd103       O444   2.383       .  S
Cd103       O440   2.440       .  S
O104       Cd439   2.440       .  S
C106        O110   1.271       .  A
O108       Cd439   2.383       .  S
O110       Cd439   2.392       .  S
C111        C114   1.566       .  S
C111        C156   1.565       .  S
C112        C117   1.554       .  S
C112        C145   1.568       .  S
C113        C114   1.413       .  A
C113        C118   1.392   1_545  A
C113        H120   1.078       .  S
C114        C115   1.428       .  A
C115        C116   1.405   1_545  A
C115        N122   1.430       .  S
C116        C117   1.409       .  A
C116        H121   1.084       .  S
C117        C118   1.425       .  A
C118        N119   1.434       .  S
N119        H123   1.046       .  S
N119        H124   1.046       .  S
N122        H125   1.041       .  S
N122        H126   1.040   1_554  S
C127        C128   1.405       .  A
C127        C132   1.411       .  A
C127        H134   1.084       .  S
C128        C129   1.425       .  A
C129        C466   1.387   1_455  A
C129        N472   1.439   1_455  S
C130        C465   1.387       .  A
C130        C467   1.395       .  A
C130        H135   1.085       .  S
C131        C132   1.414       .  A
C131        C466   1.395   1_455  A
C132        N133   1.437       .  S
N133        H137   1.045       .  S
N133        H138   1.046       .  S
N136        C465   1.439       .  S
N136        H139   1.034       .  S
N136        H140   1.045       .  S
C141        C478   1.403       .  A
C141        C482   1.396   1_556  A
C141        H148   1.085       .  S
C142        C420   1.555   1_455  S
C142        C143   1.425       .  A
C142        C477   1.403   1_455  A
C143        C144   1.405       .  A
C143        N150   1.432       .  S
C144        C145   1.415   1_556  A
C144        H149   1.080   1_556  S
C145        C146   1.432       .  A
C146        C477   1.396   1_454  A
C146        N483   1.429       .  S
N147        C482   1.429       .  S
N147        H151   1.040       .  S
N147        H488   1.040       .  S
N150        H153   1.046       .  S
N150        H154   1.046       .  S
H152        N483   1.040       .  S
C155        C156   1.408       .  A
C155        C496   1.403   1_454  A
C155        H162   1.084       .  S
C156        C157   1.425   1_554  A
C157        C158   1.409       .  A
C157        N164   1.433       .  S
C158        C159   1.417   1_455  A
C158        H163   1.078       .  S
C159        C419   1.577       .  S
C159        C496   1.430       .  A
C160        C491   1.403   1_556  A
C160        C495   1.430       .  A
C160        N161   1.431       .  S
N161        H165   1.039       .  S
N161        H166   1.042       .  S
N164        H167   1.046       .  S
N164        H168   1.046       .  S
C169        C170   1.413       .  A
C169        C174   1.406   1_565  A
C169        H176   1.078       .  S
C170        C171   1.429       .  A
C171        C172   1.392   1_565  A
C171        N514   1.432       .  S
C172        C173   1.408       .  A
C172        H513   1.085       .  S
C173        C174   1.432       .  A
C174        N175   1.431       .  S
N175        H179   1.043       .  S
N175        H180   1.042       .  S
H177        C508   1.085   1_455  S
N178        C507   1.432   1_455  S
N178        H181   1.040       .  S
N178        H182   1.040       .  S
C183        C520   1.402       .  A
C183        C524   1.398       .  A
C183        H190   1.084       .  S
C184        C185   1.419       .  A
C184        C519   1.402   1_455  A
C185        C186   1.417       .  A
C185        N192   1.436       .  S
C186        C187   1.404       .  A
C186        H191   1.083       .  S
C187        C188   1.417       .  A
C188        C519   1.398   1_455  A
C188        N525   1.438   1_455  S
N189        C524   1.438       .  S
N189        H193   1.046       .  S
N189        H194   1.045       .  S
N192        H195   1.045       .  S
N192        H196   1.046       .  S
C197        C198   1.411       .  A
C197        C202   1.403       .  A
C197        H204   1.079       .  S
C198        C199   1.416       .  A
C199        C200   1.401       .  A
C199        N206   1.431       .  S
C200        C201   1.409       .  A
C200        H205   1.084       .  S
C201        C202   1.426       .  A
C202        N203   1.433       .  S
N203        H207   1.046       .  S
N203        H208   1.046       .  S
N206        H209   1.045       .  S
N206        H210   1.046       .  S
C211        C212   1.409       .  A
C211        C216   1.403       .  A
C211        H218   1.083       .  S
C212        C213   1.409       .  A
C213        C214   1.403       .  A
C213        N220   1.438       .  S
C214        C215   1.409       .  A
C214        H219   1.083       .  S
C215        C216   1.410       .  A
C216        N217   1.438       .  S
N217        H221   1.046       .  S
N217        H222   1.046       .  S
N220        H223   1.046       .  S
N220        H224   1.046       .  S
C225        C226   1.400       .  A
C225        C230   1.401       .  A
C225        H232   1.084       .  S
C226        C227   1.424       .  A
C227        C228   1.397       .  A
C227        N234   1.432       .  S
C228        C229   1.399       .  A
C228        H233   1.084       .  S
C229        C230   1.418       .  A
C230        N231   1.433       .  S
N231        H235   1.046       .  S
N231        H236   1.046       .  S
N234        H237   1.044       .  S
N234        H238   1.045       .  S
C239        C240   1.411   1_554  A
C239        C244   1.417   1_554  A
C239        H246   1.083       .  S
C240        C241   1.411       .  A
C241        C242   1.399       .  A
C241        N248   1.439       .  S
C242        C243   1.406       .  A
C242        H247   1.084       .  S
C243        C244   1.411       .  A
C244        N245   1.436       .  S
N245        H249   1.046   1_556  S
N245        H250   1.046       .  S
N248        H251   1.046       .  S
N248        H252   1.046       .  S
C253        C254   1.408       .  A
C253        C258   1.399       .  A
C253        H260   1.084       .  S
C254        C255   1.435       .  A
C255        C256   1.408       .  A
C255        N262   1.433       .  S
C256        C257   1.417       .  A
C256        H261   1.079       .  S
C257        C258   1.429       .  A
C258        N259   1.430       .  S
N259        H263   1.038       .  S
N259        H264   1.041       .  S
N262        H265   1.044       .  S
N262        H266   1.042       .  S
C267        C268   1.413       .  A
C267        C272   1.411       .  A
C267        H274   1.083       .  S
C268        C269   1.437       .  A
C269        C270   1.401       .  A
C269        N276   1.431       .  S
C270        C271   1.410       .  A
C270        H275   1.081       .  S
C271        C272   1.422       .  A
C272        N273   1.439       .  S
N273        H277   1.046       .  S
N273        H278   1.045       .  S
N276        H279   1.041       .  S
N276        H280   1.042       .  S
C281        C282   1.404       .  A
C281        C286   1.388       .  A
C281        H288   1.079       .  S
C282        C283   1.430       .  A
C283        C284   1.417       .  A
C283        N290   1.437       .  S
C284        C285   1.417       .  A
C284        H289   1.081       .  S
C285        C286   1.423       .  A
C286        N287   1.426       .  S
N287        H291   1.044       .  S
N287        H292   1.046       .  S
N290        H293   1.041       .  S
N290        H294   1.045       .  S
C295        C296   1.405       .  A
C295        C300   1.399       .  A
C295        H302   1.084       .  S
C296        C297   1.416       .  A
C297        C298   1.405       .  A
C297        N304   1.438       .  S
C298        C299   1.402       .  A
C298        H303   1.084       .  S
C299        C300   1.407       .  A
C300        N301   1.433       .  S
N301        H305   1.046       .  S
N301        H306   1.046       .  S
N304        H307   1.045       .  S
N304        H308   1.046       .  S
C309        C310   1.399       .  A
C309        C314   1.395       .  A
C309        H316   1.084       .  S
C310        C311   1.421       .  A
C311        C312   1.406       .  A
C311        N318   1.438       .  S
C312        C313   1.400       .  A
C312        H317   1.084       .  S
C313        C314   1.423       .  A
C314        N315   1.433       .  S
N315        H319   1.045       .  S
N315        H320   1.045       .  S
N318        H321   1.046       .  S
N318        H322   1.046       .  S
C323        C324   1.409       .  A
C323        C328   1.407       .  A
C323        H330   1.084       .  S
C324        C325   1.410       .  A
C325        C326   1.394   1_556  A
C325        N332   1.440   1_556  S
C326        C327   1.404       .  A
C326        H331   1.084       .  S
C327        C328   1.411   1_554  A
C328        N329   1.431       .  S
N329        H333   1.045   1_556  S
N329        H334   1.045       .  S
N332        H335   1.045       .  S
N332        H336   1.046       .  S
O337        C340   1.272       .  A
O337       Cd342   2.485       .  S
C338        O347   1.267       .  A
C338        O343   1.273       .  A
C338        C391   1.521       .  S
O339        C345   1.273       .  A
O339       Cd342   2.486       .  S
C340        O348   1.265       .  A
C340        C663   1.475       .  S
C341        O346   1.274       .  A
C341        O344   1.261       .  A
C341        C649   1.483       .  S
Cd342       O349   2.392       .  S
Cd342       O348   2.358       .  S
Cd342       O347   2.397       .  S
Cd342       O343   2.480       .  S
Cd342       O346   2.476       .  S
Cd342       O344   2.384       .  S
C345        O349   1.273       .  A
C345        C447   1.519       .  S
O350        C353   1.274       .  A
O350       Cd355   2.481       .  S
C351        O360   1.265       .  A
C351        O356   1.276       .  A
C351        C660   1.475       .  S
O352        C358   1.271       .  A
O352       Cd355   2.449       .  S
C353        O361   1.267       .  A
C353        C363   1.524       .  S
C354        O359   1.268       .  A
C354        O357   1.270       .  A
C354        C419   1.525       .  S
Cd355       O362   2.397       .  S
Cd355       O361   2.376       .  S
Cd355       O360   2.338       .  S
Cd355       O356   2.488       .  S
Cd355       O359   2.442       .  S
Cd355       O357   2.486       .  S
C358        O362   1.263       .  A
C358        C635   1.470       .  S
C363        C409   1.529       .  S
C363        C607   1.572       .  S
C363        C618   1.567       .  S
C364        C382   1.542       .  S
C364        C442   1.517       .  S
C364        C590   1.572       .  S
C364        C621   1.574       .  S
O365        C368   1.274       .  A
O365       Cd370   2.522       .  S
C366        O375   1.262       .  A
C366        O371   1.274       .  A
C366        C562   1.483       .  S
O367        C373   1.274       .  A
O367       Cd370   2.499       .  S
C368        O376   1.273       .  A
C368        C448   1.533       .  S
C369        O374   1.272       .  A
C369        O372   1.265       .  A
C369        C576   1.487   1_554  S
Cd370       O377   2.440       .  S
Cd370       O376   2.394       .  S
Cd370       O375   2.382       .  S
Cd370       O371   2.470       .  S
Cd370       O374   2.511       .  S
Cd370       O372   2.396       .  S
C373        O377   1.271       .  A
C373        C392   1.539       .  S
O378        C381   1.274       .  A
O378       Cd383   2.452       .  S
C379        O388   1.273       .  A
C379        O384   1.271       .  A
C379        C420   1.539       .  S
O380        C386   1.278       .  A
O380       Cd383   2.518       .  S
C381        O389   1.266       .  A
C381        C551   1.482       .  S
C382        O387   1.276       .  A
C382        O385   1.269       .  A
Cd383       O390   2.371       .  S
Cd383       O389   2.385       .  S
Cd383       O388   2.498       .  S
Cd383       O384   2.458       .  S
Cd383       O387   2.503       .  S
Cd383       O385   2.409       .  S
C386        O390   1.267       .  A
C386        C579   1.487       .  S
C391        C396   1.532       .  S
C391        C534   1.557       .  S
C391        C604   1.572       .  S
C392        C429   1.518       .  S
C392        C537   1.555       .  S
C392        C593   1.575       .  S
O393        C396   1.276       .  A
O393       Cd398   2.435       .  S
C394        C646   1.484       .  S
O395        C401   1.278       .  A
O395       Cd398   2.421       .  S
C396        O404   1.269       .  A
C397        O402   1.278       .  A
C397        O400   1.268       .  A
C397        C523   1.487       .  S
Cd398       O405   2.476       .  S
Cd398       O404   2.471       .  S
Cd398       O403   2.371       .  S
Cd398       O399   2.450       .  S
Cd398       O402   2.503       .  S
Cd398       O400   2.377       .  S
C401        O405   1.267       .  A
C401        C447   1.536       .  S
O406        C409   1.272       .  A
C407        O416   1.264       .  A
C407        O412   1.268       .  A
C407        C632   1.479       .  S
O408        C414   1.274       .  A
C409        O417   1.271       .  A
C410        O415   1.266       .  A
C410        O413   1.265       .  A
C410        C520   1.491       .  S
Cd411       O416   2.408       .  S
Cd411       O412   2.451       .  S
Cd411       O415   2.498       .  S
Cd411       O413   2.420       .  S
C414        O418   1.269       .  A
C414        C419   1.538       .  S
C419        C509   1.565       .  S
C420        C435   1.513       .  S
C420        C506   1.568       .  S
O421        C424   1.276       .  A
O421       Cd426   2.454       .  S
C422        O431   1.266       .  A
C422        O427   1.275       .  A
C422        C448   1.508       .  S
O423        C429   1.276       .  A
O423       Cd426   2.422       .  S
C424        O432   1.268       .  A
C424        C464   1.475       .  S
C425        O428   1.265   1_655  A
C425        C565   1.482       .  S
Cd426       O433   2.437       .  S
Cd426       O432   2.375       .  S
Cd426       O431   2.405       .  S
Cd426       O427   2.397       .  S
Cd426       O430   2.455       .  S
C429        O433   1.269       .  A
O434        C437   1.270       .  A
O434       Cd439   2.483       .  S
C435        O444   1.270       .  A
C435        O440   1.273       .  A
O436        C442   1.273       .  A
C437        O445   1.264       .  A
C437        C467   1.471       .  S
C438        O443   1.272       .  A
C438        O441   1.263       .  A
C438        C548   1.482       .  S
Cd439       O445   2.332       .  S
Cd439       O443   2.462       .  S
Cd439       O441   2.386       .  S
C442        O446   1.271       .  A
C447        C450   1.566       .  S
C447        C492   1.565       .  S
C448        C453   1.554       .  S
C448        C481   1.568       .  S
C449        C450   1.413       .  A
C449        C454   1.392   1_545  A
C449        H456   1.078       .  S
C450        C451   1.428       .  A
C451        C452   1.405   1_545  A
C451        N458   1.430       .  S
C452        C453   1.409       .  A
C452        H457   1.084       .  S
C453        C454   1.425       .  A
C454        N455   1.434       .  S
N455        H459   1.046       .  S
N455        H460   1.046       .  S
N458        H461   1.041       .  S
N458        H462   1.040   1_554  S
C463        C464   1.405       .  A
C463        C468   1.411       .  A
C463        H470   1.084       .  S
C464        C465   1.425       .  A
C466        H471   1.085       .  S
C467        C468   1.414       .  A
C468        N469   1.437       .  S
N469        H473   1.045       .  S
N469        H474   1.046       .  S
N472        H475   1.034   1_655  S
N472        H476   1.045       .  S
C477        H484   1.085       .  S
C478        C479   1.425       .  A
C479        C480   1.405       .  A
C479        N486   1.432       .  S
C480        C481   1.415   1_556  A
C480        H485   1.080   1_556  S
C481        C482   1.432       .  A
N483        H487   1.040       .  S
N486        H489   1.046       .  S
N486        H490   1.046       .  S
C491        C492   1.408       .  A
C491        H498   1.084       .  S
C492        C493   1.425   1_554  A
C493        C494   1.409       .  A
C493        N500   1.433       .  S
C494        C495   1.417       .  A
C494        H499   1.078       .  S
C496        N497   1.431       .  S
N497        H501   1.039       .  S
N497        H502   1.042       .  S
N500        H503   1.046       .  S
N500        H504   1.046       .  S
C505        C506   1.413       .  A
C505        C510   1.406   1_565  A
C505        H512   1.078       .  S
C506        C507   1.429       .  A
C507        C508   1.392   1_565  A
C508        C509   1.408       .  A
C509        C510   1.432       .  A
C510        N511   1.431       .  S
N511        H515   1.043       .  S
N511        H516   1.042       .  S
N514        H517   1.040       .  S
N514        H518   1.040       .  S
C519        H526   1.084       .  S
C520        C521   1.419       .  A
C521        C522   1.417       .  A
C521        N528   1.436       .  S
C522        C523   1.404       .  A
C522        H527   1.083       .  S
C523        C524   1.417       .  A
N525        H529   1.046       .  S
N525        H530   1.045   1_655  S
N528        H531   1.045       .  S
N528        H532   1.046       .  S
C533        C534   1.411       .  A
C533        C538   1.403       .  A
C533        H540   1.079       .  S
C534        C535   1.416       .  A
C535        C536   1.401       .  A
C535        N542   1.431       .  S
C536        C537   1.409       .  A
C536        H541   1.084       .  S
C537        C538   1.426       .  A
C538        N539   1.433       .  S
N539        H543   1.046       .  S
N539        H544   1.046       .  S
N542        H545   1.045       .  S
N542        H546   1.046       .  S
C547        C548   1.409       .  A
C547        C552   1.403       .  A
C547        H554   1.083       .  S
C548        C549   1.409       .  A
C549        C550   1.403       .  A
C549        N556   1.438       .  S
C550        C551   1.409       .  A
C550        H555   1.083       .  S
C551        C552   1.410       .  A
C552        N553   1.438       .  S
N553        H557   1.046       .  S
N553        H558   1.046       .  S
N556        H559   1.046       .  S
N556        H560   1.046       .  S
C561        C562   1.400       .  A
C561        C566   1.401       .  A
C561        H568   1.084       .  S
C562        C563   1.424       .  A
C563        C564   1.397       .  A
C563        N570   1.432       .  S
C564        C565   1.399       .  A
C564        H569   1.084       .  S
C565        C566   1.418       .  A
C566        N567   1.433       .  S
N567        H571   1.046       .  S
N567        H572   1.046       .  S
N570        H573   1.044       .  S
N570        H574   1.045       .  S
C575        C576   1.411   1_554  A
C575        C580   1.417   1_554  A
C575        H582   1.083       .  S
C576        C577   1.411       .  A
C577        C578   1.399       .  A
C577        N584   1.439       .  S
C578        C579   1.406       .  A
C578        H583   1.084       .  S
C579        C580   1.411       .  A
C580        N581   1.436       .  S
N581        H585   1.046   1_556  S
N581        H586   1.046       .  S
N584        H587   1.046       .  S
N584        H588   1.046       .  S
C589        C590   1.408       .  A
C589        C594   1.399       .  A
C589        H596   1.084       .  S
C590        C591   1.435       .  A
C591        C592   1.408       .  A
C591        N598   1.433       .  S
C592        C593   1.417       .  A
C592        H597   1.079       .  S
C593        C594   1.429       .  A
C594        N595   1.430       .  S
N595        H599   1.038       .  S
N595        H600   1.041       .  S
N598        H601   1.044       .  S
N598        H602   1.042       .  S
C603        C604   1.413       .  A
C603        C608   1.411       .  A
C603        H610   1.083       .  S
C604        C605   1.437       .  A
C605        C606   1.401       .  A
C605        N612   1.431       .  S
C606        C607   1.410       .  A
C606        H611   1.081       .  S
C607        C608   1.422       .  A
C608        N609   1.439       .  S
N609        H613   1.046       .  S
N609        H614   1.045       .  S
N612        H615   1.041       .  S
N612        H616   1.042       .  S
C617        C618   1.404       .  A
C617        C622   1.388       .  A
C617        H624   1.079       .  S
C618        C619   1.430       .  A
C619        C620   1.417       .  A
C619        N626   1.437       .  S
C620        C621   1.417       .  A
C620        H625   1.081       .  S
C621        C622   1.423       .  A
C622        N623   1.426       .  S
N623        H627   1.044       .  S
N623        H628   1.046       .  S
N626        H629   1.041       .  S
N626        H630   1.045       .  S
C631        C632   1.405       .  A
C631        C636   1.399       .  A
C631        H638   1.084       .  S
C632        C633   1.416       .  A
C633        C634   1.405       .  A
C633        N640   1.438       .  S
C634        C635   1.402       .  A
C634        H639   1.084       .  S
C635        C636   1.407       .  A
C636        N637   1.433       .  S
N637        H641   1.046       .  S
N637        H642   1.046       .  S
N640        H643   1.045       .  S
N640        H644   1.046       .  S
C645        C646   1.399       .  A
C645        C650   1.395       .  A
C645        H652   1.084       .  S
C646        C647   1.421       .  A
C647        C648   1.406       .  A
C647        N654   1.438       .  S
C648        C649   1.400       .  A
C648        H653   1.084       .  S
C649        C650   1.423       .  A
C650        N651   1.433       .  S
N651        H655   1.045       .  S
N651        H656   1.045       .  S
N654        H657   1.046       .  S
N654        H658   1.046       .  S
C659        C660   1.409       .  A
C659        C664   1.407       .  A
C659        H666   1.084       .  S
C660        C661   1.410       .  A
C661        C662   1.394   1_556  A
C661        N668   1.440   1_556  S
C662        C663   1.404       .  A
C662        H667   1.084       .  S
C663        C664   1.411   1_554  A
C664        N665   1.431       .  S
N665        H669   1.045   1_556  S
N665        H670   1.045       .  S
N668        H671   1.045       .  S
N668        H672   1.046       .  S
