geometry optimzed in LAMMPS
_audit_creation_date              2020-12-01 
_audit_creation_method            'lammps2cif' 
_symmetry_space_group_name_H-M    'P1' 
_symmetry_Int_Tables_number       1 
_symmetry_cell_setting            triclinic 
loop_ 
_symmetry_equiv_pos_as_xyz 
  x,y,z 
_cell_length_a                    35.9101791 
_cell_length_b                    35.90732932047806 
_cell_length_c                    24.303934680896344 
_cell_angle_alpha                 89.63441185129422 
_cell_angle_beta                  89.36459640840984 
_cell_angle_gamma                 120.08504732036653 
loop_ 
_atom_site_label 
_atom_site_type_symbol 
_atom_site_fract_x 
_atom_site_fract_y 
_atom_site_fract_z 
_atom_site_charge 
C1          C  0.33021446  0.16748934  0.08788987     0.30600
C2          C  0.33152510  0.16948450  0.97546832     0.30600
C3          C  0.35348435  0.14649384  0.05957393    -0.05600
C4          C  0.28557202  0.14508069  0.06031272    -0.06400
C5          C  0.35208290  0.21267122  0.06082062    -0.06300
C6          C  0.35446899  0.14825109  0.00235609    -0.05600
C7          C  0.28679061  0.14556936  0.00282884    -0.06400
C8          C  0.35176729  0.21333539  0.00342405    -0.06300
C9          C  0.37564419  0.12776651  0.98405760    -0.31700
N10         N  0.38706430  0.11298589  0.02841398     0.14800
C11         C  0.37358082  0.12382973  0.07495972    -0.31700
H12         H  0.37775672  0.11557556  0.11644902     0.16800
C13         C  0.24512567  0.12561208  0.98503951    -0.30700
N14         N  0.21852935  0.11357311  0.02958093     0.13600
C15         C  0.24245664  0.12585310  0.07582675    -0.30600
C16         C  0.37201197  0.25559775  0.98655219    -0.30900
N17         N  0.38586077  0.28065351  0.03161031     0.14100
H18         H  0.37746256  0.26760815  0.94456632     0.16700
C19         C  0.37420515  0.25512168  0.07738380    -0.30900
H20         H  0.38152462  0.26662823  0.11910717     0.16700
H21         H  0.22923830  0.12175077  0.11704227     0.16700
H22         H  0.38128950  0.12279610  0.94158180     0.16800
H23         H  0.23457481  0.12123681  0.94285491     0.16700
C24         C  0.33688832  0.16866627  0.47540371     0.30600
C25         C  0.33285762  0.16541192  0.58791545     0.30600
C26         C  0.35969296  0.14763904  0.50337744    -0.05600
C27         C  0.35602366  0.21221451  0.50410070    -0.06400
C28         C  0.29156642  0.14412240  0.50115608    -0.06300
C29         C  0.35810793  0.14613687  0.56065616    -0.05600
C30         C  0.35398891  0.21080679  0.56156226    -0.06400
C31         C  0.28899650  0.14210859  0.55857101    -0.06300
C32         C  0.38040893  0.12600577  0.57732883    -0.31700
N33         N  0.39455373  0.11509167  0.53149192     0.14800
C34         C  0.38205994  0.12803165  0.48632034    -0.31700
H35         H  0.38880850  0.12341264  0.44417191     0.16800
C36         C  0.37290493  0.25293141  0.57912861    -0.30700
N37         N  0.38644509  0.27907192  0.53389147     0.13600
C38         C  0.37617556  0.25470103  0.48818002    -0.30600
C39         C  0.24548306  0.12063507  0.57239462    -0.30900
N40         N  0.22269372  0.10985515  0.52531449     0.14100
H41         H  0.23093037  0.11441411  0.61297723     0.16700
C42         C  0.25027113  0.12438518  0.48176933    -0.30900
H43         H  0.24054049  0.12067181  0.43927783     0.16700
H44         H  0.38279377  0.26734382  0.44648567     0.16700
H45         H  0.38535553  0.11920412  0.61920251     0.16800
H46         H  0.37705172  0.26380852  0.62120781     0.16700
C47         C  0.16508234  0.33487240  0.02384190     0.30600
C48         C  0.16700313  0.33725140  0.91137636     0.30600
C49         C  0.14355784  0.35780431  0.99700204    -0.05600
C50         C  0.20987539  0.35773680  0.99654699    -0.06400
C51         C  0.14335295  0.29126906  0.99564550    -0.06300
C52         C  0.14416108  0.35915921  0.93953113    -0.05600
C53         C  0.21107385  0.35865097  0.93920616    -0.06400
C54         C  0.14378358  0.29202117  0.93829687    -0.06300
C55         C  0.12261409  0.38059322  0.92444751    -0.31700
N56         N  0.10963782  0.39187937  0.97099009     0.14800
C57         C  0.12221904  0.37822016  0.01527484    -0.31700
H58         H  0.11679063  0.38361215  0.05762370     0.16800
C59         C  0.25393817  0.37952251  0.92298673    -0.30700
N60         N  0.27804277  0.39189177  0.96907835     0.13600
C61         C  0.25166297  0.37903822  0.01391050    -0.30600
C62         C  0.12131595  0.24958371  0.92171648    -0.30900
N63         N  0.10862701  0.22404010  0.96754523     0.14100
H64         H  0.11460187  0.23808499  0.87993913     0.16700
C65         C  0.12192695  0.24908544  0.01268029    -0.30900
H66         H  0.11567273  0.23732135  0.05482609     0.16700
H67         H  0.26257450  0.38454170  0.05593696     0.16700
H68         H  0.11614704  0.38709476  0.88324284     0.16800
H69         H  0.26659078  0.38538781  0.88123989     0.16700
C70         C  0.16984210  0.33514163  0.41162246     0.30600
C71         C  0.16658510  0.33182182  0.52407332     0.30600
C72         C  0.14608351  0.35614056  0.43941373    -0.05600
C73         C  0.14736306  0.28975785  0.43796289    -0.06400
C74         C  0.21390195  0.35766986  0.44066787    -0.06300
C75         C  0.14504863  0.35465170  0.49684099    -0.05600
C76         C  0.14507641  0.28836117  0.49528758    -0.06400
C77         C  0.21146606  0.35471905  0.49796426    -0.06300
C78         C  0.12273656  0.37422171  0.51460514    -0.31700
N79         N  0.10979798  0.38730155  0.47003147     0.14800
C80         C  0.12356014  0.37643089  0.42368606    -0.31700
H81         H  0.11769263  0.38285308  0.38207296     0.16800
C82         C  0.12298931  0.24592212  0.51119732    -0.30700
N83         N  0.11336464  0.22147915  0.46570917     0.13600
C84         C  0.12807534  0.24757628  0.42042625    -0.30600
C85         C  0.25245856  0.37569405  0.51772006    -0.30900
N86         N  0.28009031  0.39255212  0.47441267     0.14100
H87         H  0.26160537  0.37943782  0.56050419     0.16700
C88         C  0.25734388  0.38283881  0.42722001    -0.30900
H89         H  0.27171408  0.39415682  0.38687996     0.16700
H90         H  0.12477650  0.23674373  0.37837460     0.16700
H91         H  0.11560480  0.37811354  0.55684958     0.16800
H92         H  0.11454690  0.23323511  0.55277957     0.16700
O93         O  0.05206856  0.48200318  0.03813572    -0.87800
C94         C  0.06594299  0.06651241  0.91474972     0.88300
Mg95       Mg  0.00343679  0.41523522  0.03791269     1.58100
O96         O  0.01689349  0.07667557  0.03537687    -0.87500
O97         O  0.07002317  0.03771944  0.09108354    -0.74800
C98         C  0.32374161  0.41308821  0.97268946     0.93300
O99         O  0.03478674  0.46305768  0.90829868    -0.76100
O100        O  0.34261658  0.39179738  0.96321654    -0.82200
Mg101      Mg  0.09024286  0.00796392  0.96392831     1.58000
C102        C  0.40781063  0.08804862  0.02417397     0.93200
O103        O  0.15297606  0.05413392  0.00781070    -0.80400
H104        H  0.01916193  0.08899537  0.11570817    -0.05800
C105        C  0.43578654  0.50607008  0.91469476     0.88200
O106        O  0.45819429  0.42733347  0.09249277    -0.74900
O107        O  0.07179344  0.05635071  0.96115363    -0.87700
O108        O  0.44625069  0.10636738  0.00513984    -0.80500
C109        C  0.08377698  0.17819436  0.97048856     0.93300
C110        C  0.17276645  0.09247470  0.02578505     0.93200
Mg111      Mg  0.40591186  0.49673003  0.03544804     1.58000
O112        O  0.34340189  0.45118660  0.99133601    -0.80400
O113        O  0.46115054  0.04143143  0.09025346    -0.74700
O114        O  0.10179448  0.15780679  0.98856409    -0.80500
O115        O  0.10970723  0.45661168  0.96465917    -0.82200
O116        O  0.39386186  0.34713746  0.00943291    -0.80500
C117        C  0.49995754  0.07041179  0.08151804     0.87600
O118        O  0.42430860  0.44835907  0.03750644    -0.87700
O119        O  0.44401176  0.02251931  0.96033292    -0.87800
O120        O  0.42641303  0.46738526  0.90753485    -0.74800
Mg121      Mg  0.08327784  0.09449978  0.03448520     1.58000
O122        O  0.04369884  0.15970392  0.96094500    -0.82200
H123        H  0.05863108  0.47955369  0.11939175    -0.05900
O124        O  0.47908424  0.42776908  0.96321403    -0.87500
H125        H  0.47682861  0.41545798  0.88288445    -0.05800
H126        H  0.41143983  0.43944859  0.11828483    -0.05900
C127        C  0.99600786  0.43402834  0.91705965     0.87600
C128        C  0.06034012  0.99887991  0.08442411     0.88200
C129        C  0.42998548  0.43799780  0.08387077     0.88200
H130        H  0.43810418  0.02532059  0.87898862    -0.05900
O131        O  0.03770434  0.07715741  0.90616381    -0.74900
Mg132      Mg  0.41287874  0.41050927  0.96387159     1.58000
H133        H  0.08440772  0.06497671  0.88029795    -0.05900
C134        C  0.08834706  0.41636256  0.97502801     0.93200
O135        O  0.45135303  0.34457683  0.03827071    -0.82200
C136        C  0.41130629  0.32646417  0.02834571     0.93300
O137        O  0.15387304  0.11381428  0.03489274    -0.82200
Mg138      Mg  0.49236544  0.08911058  0.96085400     1.58200
O139        O  0.04984651  0.39777745  0.99404955    -0.80500
O140        O  0.38610409  0.04777840  0.03414272    -0.82200
O141        O  0.48202991  0.05531911  0.46402016    -0.87800
C142        C  0.06743110  0.06844797  0.58177177     0.88300
Mg143      Mg  0.41534917  0.00786625  0.46770958     1.58100
O144        O  0.07456447  0.01902417  0.46060525    -0.87500
O145        O  0.03610993  0.07395976  0.40692178    -0.74800
C146        C  0.40864541  0.32498472  0.53193084     0.93300
O147        O  0.46470962  0.03768632  0.59438886    -0.74700
O148        O  0.38775128  0.34427840  0.54162989    -0.82200
Mg149      Mg  0.00905221  0.09358830  0.53653764     1.58000
C150        C  0.08523723  0.40860566  0.47406882     0.93200
O151        O  0.05428635  0.15575621  0.48940925    -0.80400
H152        H  0.08529748  0.02079803  0.37952218    -0.05800
C153        C  0.50397451  0.43601081  0.58681428     0.88200
O154        O  0.42636985  0.46243988  0.41305816    -0.74900
O155        O  0.05707609  0.07489949  0.53593358    -0.87700
O156        O  0.10410943  0.44736585  0.49068484    -0.80500
C157        C  0.17703146  0.08512266  0.52057653     0.93300
C158        C  0.09215595  0.17564782  0.46864376     0.93200
Mg159      Mg  0.49373503  0.40726736  0.46742941     1.58000
O160        O  0.44750895  0.34466590  0.51425451    -0.80400
O161        O  0.03845848  0.46296222  0.40969316    -0.74700
O162        O  0.15732494  0.10339356  0.50110714    -0.80500
O163        O  0.45852675  0.11383998  0.53707996    -0.82200
O164        O  0.34527603  0.39898570  0.49917651    -0.80500
C165        C  0.06755254  0.50182512  0.41612340     0.87600
O166        O  0.44598906  0.42666308  0.46708316    -0.87700
O167        O  0.02039715  0.44542738  0.54022498    -0.87800
O168        O  0.46525486  0.42642304  0.59580478    -0.74800
Mg169      Mg  0.09347085  0.08592379  0.45957089     1.58000
O170        O  0.15801042  0.04503259  0.53183047    -0.82200
H171        H  0.47758505  0.06329195  0.38341814    -0.05900
O172        O  0.42740743  0.48208689  0.54258864    -0.87500
H173        H  0.41723156  0.47987417  0.62386320    -0.05800
H174        H  0.43698514  0.41504829  0.38662041    -0.05900
C175        C  0.43521555  0.99897766  0.58788137     0.87600
C176        C  0.99768505  0.06470054  0.41710032     0.88200
C177        C  0.43602428  0.43339003  0.42116073     0.88200
H178        H  0.02345666  0.43728163  0.62114781    -0.05900
O179        O  0.07680442  0.03921302  0.59001617    -0.74900
Mg180      Mg  0.40837249  0.41522059  0.54212244     1.58000
H181        H  0.06685251  0.08708086  0.61620348    -0.05900
C182        C  0.41824612  0.09298816  0.52873319     0.93200
O183        O  0.34472751  0.45758422  0.46932972    -0.82200
C184        C  0.32568334  0.41741492  0.47976843     0.93300
O185        O  0.11334178  0.15684364  0.45759086    -0.82200
Mg186      Mg  0.08731650  0.49355933  0.53587350     1.58200
O187        O  0.39894831  0.05427529  0.51211076    -0.80500
O188        O  0.04473987  0.38706470  0.46694982    -0.82200
C189        C  0.17060140  0.35314827  0.66668606     0.30300
C190        C  0.17191444  0.37646759  0.71337039    -0.36000
C191        C  0.17295984  0.35832297  0.76413797     0.16300
C192        C  0.17264467  0.31987925  0.76878077     0.22100
C193        C  0.17312971  0.29742736  0.72194664    -0.34100
C194        C  0.17206894  0.31560911  0.67110648     0.16200
O195        O  0.16759917  0.36320656  0.61534472    -0.26100
C196        C  0.16675370  0.33154179  0.58621899     0.06000
C197        C  0.17099191  0.30182610  0.61883668    -0.31000
O198        O  0.17068690  0.30749087  0.82044801    -0.22900
C199        C  0.16955901  0.33833899  0.84932757    -0.02800
C200        C  0.17237187  0.37147822  0.81626124    -0.17300
H201        H  0.17100564  0.40608645  0.71039082     0.20700
H202        H  0.17311529  0.26733326  0.72495728     0.19100
H203        H  0.17349345  0.27435185  0.60616098     0.19000
H204        H  0.17363787  0.40096232  0.82845152     0.14900
C205        C  0.14684824  0.32780068  0.26908613     0.30300
C206        C  0.12171822  0.32165041  0.22239463    -0.36000
C207        C  0.14210832  0.32540051  0.17129667     0.16300
C208        C  0.18429073  0.33489393  0.16664283     0.22100
C209        C  0.20886819  0.33968309  0.21318879    -0.34100
C210        C  0.18849762  0.33582095  0.26407328     0.16200
O211        O  0.13495701  0.32690109  0.32091148    -0.26100
C212        C  0.16965942  0.33491285  0.34944530     0.06000
C213        C  0.20342153  0.33942098  0.31593374    -0.31000
O214        O  0.19776990  0.33939149  0.11516825    -0.22900
C215        C  0.16385255  0.33254199  0.08600222    -0.02800
C216        C  0.12788481  0.32259101  0.11886886    -0.17300
H217        H  0.08888642  0.31509934  0.22563534     0.20700
H218        H  0.24189807  0.34682635  0.20993346     0.19100
H219        H  0.23404952  0.34321366  0.32737712     0.19000
H220        H  0.09622198  0.31535163  0.10601141     0.14900
C221        C  0.35343439  0.18146401  0.73079619     0.30300
C222        C  0.37671621  0.20241729  0.77782096    -0.36000
C223        C  0.35582394  0.18511773  0.82856475     0.16300
C224        C  0.31486241  0.14992459  0.83264828     0.22100
C225        C  0.29227954  0.12814656  0.78580546    -0.34100
C226        C  0.31319101  0.14532715  0.73522717     0.16200
O227        O  0.36572199  0.19304936  0.67913722    -0.26100
C228        C  0.33273289  0.16409015  0.65006309     0.06000
C229        C  0.29985549  0.13281751  0.68313401    -0.31000
O230        O  0.30071719  0.14029411  0.88389154    -0.22900
C231        C  0.33296422  0.16962930  0.91336591    -0.02800
C232        C  0.36857960  0.19767213  0.88105001    -0.17300
H233        H  0.40848532  0.23063445  0.77503836     0.20700
H234        H  0.26026638  0.10027175  0.78855328     0.19100
H235        H  0.27073355  0.10426176  0.67136699     0.19000
H236        H  0.39932779  0.22360067  0.89426336     0.14900
C237        C  0.35420833  0.18345817  0.22998521     0.30300
C238        C  0.37856093  0.20427228  0.27649641    -0.36000
C239        C  0.35948329  0.18579431  0.32774444     0.16300
C240        C  0.31929903  0.14956543  0.33258412     0.22100
C241        C  0.29562052  0.12812706  0.28622947    -0.34100
C242        C  0.31462105  0.14652774  0.23522807     0.16200
O243        O  0.36484200  0.19579758  0.17815330    -0.26100
C244        C  0.33139657  0.16658679  0.14991336     0.06000
C245        C  0.29980573  0.13451998  0.18347506    -0.31000
O246        O  0.30648807  0.13902777  0.38407870    -0.22900
C247        C  0.33866017  0.16881568  0.41318173    -0.02800
C248        C  0.37313982  0.19816893  0.38017341    -0.17300
H249        H  0.40971583  0.23325245  0.27301483     0.20700
H250        H  0.26409634  0.09962043  0.28973902     0.19100
H251        H  0.27047265  0.10600933  0.17187480     0.19000
H252        H  0.40347164  0.22505322  0.39280789     0.14900
C253        C  0.33026650  0.66729110  0.08807520     0.30600
C254        C  0.33183341  0.66953448  0.97563494     0.30600
C255        C  0.35373969  0.64650909  0.05977331    -0.05600
C256        C  0.28569860  0.64481869  0.06029961    -0.06400
C257        C  0.35207461  0.71252895  0.06117953    -0.06300
C258        C  0.35485298  0.64837528  0.00254821    -0.05600
C259        C  0.28707620  0.64545004  0.00282027    -0.06400
C260        C  0.35185225  0.71332841  0.00377674    -0.06300
C261        C  0.37617626  0.62801976  0.98430891    -0.31700
N262        N  0.38753158  0.61320189  0.02870224     0.14800
C263        C  0.37387357  0.62389931  0.07520830    -0.31700
H264        H  0.37793005  0.61555388  0.11670297     0.16800
C265        C  0.24549190  0.62553918  0.98479295    -0.30700
N266        N  0.21876897  0.61339909  0.02920083     0.13600
C267        C  0.24253870  0.62558542  0.07557552    -0.30600
C268        C  0.37180753  0.75563586  0.98712834    -0.30900
N269        N  0.38557049  0.78058070  0.03227214     0.14100
H270        H  0.37708785  0.76781425  0.94524564     0.16700
C271        C  0.37402618  0.75494171  0.07793489    -0.30900
H272        H  0.38129760  0.76634460  0.11970642     0.16700
H273        H  0.22916796  0.62148510  0.11669693     0.16700
H274        H  0.38193048  0.62312651  0.94184533     0.16800
H275        H  0.23510339  0.62132783  0.94253900     0.16700
C276        C  0.33666177  0.66850554  0.47561458     0.30600
C277        C  0.33310673  0.66558821  0.58810572     0.30600
C278        C  0.35958869  0.64754998  0.50348745    -0.05600
C279        C  0.35593745  0.71214309  0.50409644    -0.06400
C280        C  0.29144315  0.64404064  0.50169662    -0.06300
C281        C  0.35822070  0.64620120  0.56077385    -0.05600
C282        C  0.35416453  0.71091730  0.56155547    -0.06400
C283        C  0.28915617  0.64221121  0.55910964    -0.06300
C284        C  0.38062428  0.62616487  0.57737160    -0.31700
N285        N  0.39460875  0.61513081  0.53149275     0.14800
C286        C  0.38191974  0.62791683  0.48635675    -0.31700
H287        H  0.38852585  0.62319329  0.44418876     0.16800
C288        C  0.37311985  0.75310315  0.57889955    -0.30700
N289        N  0.38645669  0.77909822  0.53353349     0.13600
C290        C  0.37600187  0.75457977  0.48794533    -0.30600
C291        C  0.24574965  0.62053405  0.57339847    -0.30900
N292        N  0.22269325  0.60957211  0.52651836     0.14100
H293        H  0.23153454  0.61420253  0.61421570     0.16700
C294        C  0.25003586  0.62408576  0.48271350    -0.30900
H295        H  0.24006929  0.62019297  0.44031181     0.16700
H296        H  0.38243776  0.76707698  0.44617933     0.16700
H297        H  0.38576024  0.61951741  0.61923180     0.16800
H298        H  0.37741756  0.76413808  0.62090982     0.16700
C299        C  0.16503662  0.83480342  0.02384013     0.30600
C300        C  0.16668603  0.83730414  0.91135536     0.30600
C301        C  0.14367366  0.85798591  0.99729942    -0.05600
C302        C  0.20974734  0.85748715  0.99639472    -0.06400
C303        C  0.14307306  0.79125076  0.99554963    -0.06300
C304        C  0.14406042  0.85936884  0.93982515    -0.05600
C305        C  0.21082351  0.85845619  0.93904621    -0.06400
C306        C  0.14335531  0.79206314  0.93820316    -0.06300
C307        C  0.12214947  0.88055177  0.92516949    -0.31700
N308        N  0.10947783  0.89190192  0.97188503     0.14800
C309        C  0.12238616  0.87836352  0.01594160    -0.31700
H310        H  0.11712890  0.88372435  0.05837043     0.16800
C311        C  0.25366530  0.87931099  0.92270367    -0.30700
N312        N  0.27784526  0.89157185  0.96873681     0.13600
C313        C  0.25155030  0.87868588  0.01364275    -0.30600
C314        C  0.12113256  0.74964222  0.92155389    -0.30900
N315        N  0.10872177  0.72406018  0.96735094     0.14100
H316        H  0.11450638  0.73819946  0.87974345     0.16700
C317        C  0.12196086  0.74906269  0.01251817    -0.30900
H318        H  0.11595672  0.73725748  0.05464510     0.16700
H319        H  0.26252845  0.88416612  0.05564103     0.16700
H320        H  0.11493986  0.88666070  0.88420154     0.16800
H321        H  0.26625111  0.88529789  0.88092052     0.16700
C322        C  0.16965670  0.83488258  0.41155894     0.30600
C323        C  0.16652369  0.83190561  0.52399336     0.30600
C324        C  0.14598234  0.85602666  0.43918042    -0.05600
C325        C  0.14713860  0.78957269  0.43814653    -0.06400
C326        C  0.21375673  0.85746457  0.44052616    -0.06300
C327        C  0.14500564  0.85473284  0.49661331    -0.05600
C328        C  0.14498265  0.78838795  0.49546460    -0.06400
C329        C  0.21138132  0.85466660  0.49782831    -0.06300
C330        C  0.12267019  0.87435039  0.51417207    -0.31700
N331        N  0.10972065  0.88729839  0.46948530     0.14800
C332        C  0.12345262  0.87626743  0.42325673    -0.31700
H333        H  0.11755293  0.88254076  0.38158887     0.16800
C334        C  0.12337500  0.74604203  0.51174904    -0.30700
N335        N  0.11363162  0.72140861  0.46641665     0.13600
C336        C  0.12798802  0.74731792  0.42092994    -0.30600
C337        C  0.25239111  0.87572265  0.51752038    -0.30900
N338        N  0.27998199  0.89246366  0.47416006     0.14100
H339        H  0.26157845  0.87961410  0.56029294     0.16700
C340        C  0.25718998  0.88260931  0.42699564    -0.30900
H341        H  0.27152288  0.89383759  0.38661927     0.16700
H342        H  0.12460495  0.73630806  0.37895672     0.16700
H343        H  0.11550010  0.87836671  0.55634287     0.16800
H344        H  0.11552526  0.73362453  0.55351525     0.16700
O345        O  0.05170248  0.98198491  0.03871076    -0.87800
C346        C  0.06607213  0.56656317  0.91444391     0.88300
Mg347      Mg  0.00312003  0.91519619  0.03860003     1.58100
O348        O  0.01730077  0.57674481  0.03535410    -0.87500
O349        O  0.07051747  0.53770288  0.09063302    -0.74800
C350        C  0.32354552  0.91285736  0.97227267     0.93300
O351        O  0.03468350  0.96291082  0.90885812    -0.76100
O352        O  0.34246019  0.89157429  0.96304658    -0.82200
Mg353      Mg  0.09047615  0.50801712  0.96327319     1.58000
C354        C  0.40826648  0.58825137  0.02453365     0.93200
O355        O  0.15322490  0.55409273  0.00714037    -0.80400
H356        H  0.01979111  0.58908192  0.11570043    -0.05800
C357        C  0.43570173  0.00586945  0.91445770     0.88200
O358        O  0.45770659  0.92729772  0.09277220    -0.74900
O359        O  0.07204935  0.55641785  0.96078670    -0.87700
O360        O  0.44668219  0.60653518  0.00543902    -0.80500
C361        C  0.08398976  0.67821713  0.97029411     0.93300
C362        C  0.17303988  0.59240291  0.02520969     0.93200
Mg363      Mg  0.40552984  0.99657964  0.03508970     1.58000
O364        O  0.34315017  0.95100644  0.99075841    -0.80400
O365        O  0.46167981  0.54154887  0.09045919    -0.74700
O366        O  0.10209264  0.65788815  0.98830756    -0.80500
O367        O  0.10946942  0.95658046  0.96562695    -0.82200
O368        O  0.39362368  0.84704226  0.00986858    -0.80500
C369        C  0.50047788  0.57050301  0.08159281     0.87600
O370        O  0.42399545  0.94827655  0.03742091    -0.87700
O371        O  0.44426039  0.52264135  0.96060333    -0.87800
O372        O  0.42637420  0.96717310  0.90747014    -0.74800
Mg373      Mg  0.08366311  0.59453740  0.03416831     1.58000
O374        O  0.04389861  0.65968012  0.96089262    -0.82200
H375        H  0.05807630  0.97959564  0.12001438    -0.05900
O376        O  0.47888812  0.92754764  0.96361680    -0.87500
H377        H  0.47680717  0.91515773  0.88332817    -0.05800
H378        H  0.41085123  0.93939858  0.11813928    -0.05900
C379        C  0.99592431  0.93380986  0.91754796     0.87600
C380        C  0.06081329  0.49886454  0.08386951     0.88200
C381        C  0.42951688  0.93793962  0.08387831     0.88200
H382        H  0.43809634  0.52558350  0.87934028    -0.05900
O383        O  0.03779384  0.57718045  0.90603735    -0.74900
Mg384      Mg  0.41270747  0.91031618  0.96398113     1.58000
H385        H  0.08444828  0.56502261  0.87988854    -0.05900
C386        C  0.08816319  0.91634644  0.97610974     0.93200
O387        O  0.45104156  0.84450708  0.03908830    -0.82200
C388        C  0.41101081  0.82639283  0.02905032     0.93300
O389        O  0.15420522  0.61378971  0.03436171    -0.82200
Mg390      Mg  0.49262316  0.58917493  0.96099007     1.58200
O391        O  0.04966427  0.89773018  0.99513395    -0.80500
O392        O  0.38656573  0.54799610  0.03461422    -0.82200
O393        O  0.48222640  0.55528953  0.46447904    -0.87800
C394        C  0.06713339  0.56812337  0.58278478     0.88300
Mg395      Mg  0.41551703  0.50787230  0.46795885     1.58100
O396        O  0.07469470  0.51893683  0.46164322    -0.87500
O397        O  0.03651261  0.57396226  0.40772834    -0.74800
C398        C  0.40862613  0.82500634  0.53139924     0.93300
O399        O  0.46450768  0.53772127  0.59485715    -0.74700
O400        O  0.38772165  0.84429029  0.54105579    -0.82200
Mg401      Mg  0.00904061  0.59354720  0.53705792     1.58000
C402        C  0.08518630  0.90864528  0.47333307     0.93200
O403        O  0.05444948  0.65570541  0.48997769    -0.80400
H404        H  0.08554864  0.52086037  0.38057481    -0.05800
C405        C  0.50404351  0.93614534  0.58612292     0.88200
O406        O  0.42620155  0.96249438  0.41265186    -0.74900
O407        O  0.05698375  0.57472131  0.53688494    -0.87700
O408        O  0.10409588  0.94746926  0.48972414    -0.80500
C409        C  0.17701036  0.58487736  0.52206084     0.93300
C410        C  0.09243273  0.67558423  0.46956308     0.93200
Mg411      Mg  0.49365532  0.90727248  0.46679721     1.58000
O412        O  0.44748940  0.84469331  0.51372890    -0.80400
O413        O  0.03831607  0.96292486  0.40886489    -0.74700
O414        O  0.15731382  0.60319264  0.50271089    -0.80500
O415        O  0.45859832  0.61390811  0.53721471    -0.82200
O416        O  0.34522923  0.89891380  0.49863602    -0.80500
C417        C  0.06737189  0.00182327  0.41514378     0.87600
O418        O  0.44591509  0.92668935  0.46649603    -0.87700
O419        O  0.02045021  0.94558943  0.53947301    -0.87800
O420        O  0.46530444  0.92647004  0.59518823    -0.74800
Mg421      Mg  0.09365961  0.58582840  0.46077003     1.58000
O422        O  0.15798440  0.54476397  0.53314849    -0.82200
H423        H  0.47806993  0.56327253  0.38380723    -0.05900
O424        O  0.42738047  0.98206302  0.54217763    -0.87500
H425        H  0.41754036  0.97983426  0.62352722    -0.05800
H426        H  0.43689510  0.91519879  0.38600875    -0.05900
C427        C  0.43505071  0.49900818  0.58828195     0.87600
C428        C  0.99804218  0.56466996  0.41763271     0.88200
C429        C  0.43592349  0.93347502  0.42062026     0.88200
H430        H  0.02365029  0.93750358  0.62038540    -0.05900
O431        O  0.07653993  0.53890677  0.59102484    -0.74900
Mg432      Mg  0.40835013  0.91521193  0.54158474     1.58000
H433        H  0.06637762  0.58663221  0.61725699    -0.05900
C434        C  0.41833803  0.59306256  0.52872057     0.93200
O435        O  0.34456909  0.95754996  0.46922514    -0.82200
C436        C  0.32557928  0.91735347  0.47945159     0.93300
O437        O  0.11365717  0.65676350  0.45888301    -0.82200
Mg438      Mg  0.08737587  0.99376514  0.53483625     1.58200
O439        O  0.39907870  0.55435400  0.51208423    -0.80500
O440        O  0.04467797  0.88709218  0.46631924    -0.82200
C441        C  0.16877382  0.85226403  0.66665165     0.30300
C442        C  0.16839562  0.87473431  0.71333349    -0.36000
C443        C  0.17090414  0.85743196  0.76401762     0.16300
C444        C  0.17353307  0.82054934  0.76869625     0.22100
C445        C  0.17566288  0.79897113  0.72179331    -0.34100
C446        C  0.17316592  0.81634596  0.67093955     0.16200
O447        O  0.16492783  0.86179570  0.61540392    -0.26100
C448        C  0.16665947  0.83153301  0.58610846     0.06000
C449        C  0.17315857  0.80316256  0.61854167    -0.31000
O450        O  0.17268480  0.80874141  0.82044417    -0.22900
C451        C  0.16919244  0.83835582  0.84925434    -0.02800
C452        C  0.16949491  0.87021547  0.81602905    -0.17300
H453        H  0.16523818  0.90311265  0.71040967     0.20700
H454        H  0.17799402  0.77012174  0.72475495     0.19100
H455        H  0.17747278  0.77680111  0.60554175     0.19000
H456        H  0.16915685  0.89895963  0.82785496     0.14900
C457        C  0.14672006  0.82747085  0.26901941     0.30300
C458        C  0.12163802  0.82138708  0.22231216    -0.36000
C459        C  0.14205170  0.82512701  0.17124604     0.16300
C460        C  0.18422647  0.83458869  0.16661415     0.22100
C461        C  0.20875482  0.83929859  0.21318411    -0.34100
C462        C  0.18834612  0.83541299  0.26404933     0.16200
O463        O  0.13480265  0.82658566  0.32082442    -0.26100
C464        C  0.16945771  0.83450576  0.34939358     0.06000
C465        C  0.20321538  0.83894948  0.31592604    -0.31000
O466        O  0.19774085  0.83915081  0.11514236    -0.22900
C467        C  0.16383635  0.83234965  0.08598235    -0.02800
C468        C  0.12785692  0.82236604  0.11883279    -0.17300
H469        H  0.08882429  0.81489455  0.22551730     0.20700
H470        H  0.24177498  0.84640705  0.20996430     0.19100
H471        H  0.23381431  0.84268754  0.32740703     0.19000
H472        H  0.09620617  0.81516460  0.10597151     0.14900
C473        C  0.35314405  0.68236533  0.73092083     0.30300
C474        C  0.37588803  0.70402902  0.77789232    -0.36000
C475        C  0.35552386  0.68600175  0.82863159     0.16300
C476        C  0.31549436  0.64948307  0.83281240     0.22100
C477        C  0.29346393  0.62704938  0.78596949    -0.34100
C478        C  0.31390775  0.64493062  0.73533578     0.16200
O479        O  0.36511765  0.69436715  0.67931198    -0.26100
C480        C  0.33298401  0.66433959  0.65020661     0.06000
C481        C  0.30098127  0.63203091  0.68317571    -0.31000
O482        O  0.30169305  0.63930174  0.88413828    -0.22900
C483        C  0.33321083  0.66968061  0.91350873    -0.02800
C484        C  0.36809973  0.69888182  0.88104206    -0.17300
H485        H  0.40689024  0.73324781  0.77507330     0.20700
H486        H  0.26221083  0.59812478  0.78876351     0.19100
H487        H  0.27259264  0.60280009  0.67112990     0.19000
H488        H  0.39836405  0.72567121  0.89403132     0.14900
C489        C  0.35406782  0.68304921  0.23022951     0.30300
C490        C  0.37846040  0.70371926  0.27676024    -0.36000
C491        C  0.35920509  0.68540583  0.32798741     0.16300
C492        C  0.31880047  0.64947947  0.33281363     0.22100
C493        C  0.29505773  0.62817584  0.28643357    -0.34100
C494        C  0.31424992  0.64640726  0.23543954     0.16200
O495        O  0.36488917  0.69527376  0.17840138    -0.26100
C496        C  0.33133489  0.66629110  0.15011125     0.06000
C497        C  0.29946839  0.63446775  0.18366078    -0.31000
O498        O  0.30590955  0.63905841  0.38431318    -0.22900
C499        C  0.33828354  0.66860002  0.41340383    -0.02800
C500        C  0.37292071  0.69768130  0.38040313    -0.17300
H501        H  0.40980151  0.73246504  0.27330418     0.20700
H502        H  0.26337267  0.59988891  0.28991218     0.19100
H503        H  0.27000364  0.60610964  0.17207266     0.19000
H504        H  0.40340201  0.72433997  0.39305789     0.14900
C505        C  0.83021369  0.16749812  0.08790033     0.30600
C506        C  0.83152411  0.16949344  0.97547932     0.30600
C507        C  0.85349984  0.14651939  0.05958300    -0.05600
C508        C  0.78557024  0.14507142  0.06032331    -0.06400
C509        C  0.85206415  0.21267970  0.06083003    -0.06300
C510        C  0.85448473  0.14827773  0.00236551    -0.05600
C511        C  0.78678940  0.14555985  0.00283941    -0.06400
C512        C  0.85174882  0.21334204  0.00343341    -0.06300
C513        C  0.87565940  0.12779357  0.98406473    -0.31700
N514        N  0.88707890  0.11301141  0.02841964     0.14800
C515        C  0.87359576  0.12385421  0.07496659    -0.31700
H516        H  0.87776601  0.11559324  0.11645478     0.16800
C517        C  0.74512391  0.12559492  0.98504933    -0.30700
N518        N  0.71852636  0.11355234  0.02958883     0.13600
C519        C  0.74245320  0.12583762  0.07583538    -0.30600
C520        C  0.87199663  0.25560215  0.98655542    -0.30900
N521        N  0.88584066  0.28066062  0.03161179     0.14100
H522        H  0.87746028  0.26760700  0.94456584     0.16700
C523        C  0.87418444  0.25513134  0.07738853    -0.30900
H524        H  0.88150803  0.26664001  0.11911071     0.16700
H525        H  0.72923373  0.12173966  0.11704958     0.16700
H526        H  0.88129884  0.12281861  0.94158848     0.16800
H527        H  0.73457155  0.12122139  0.94286592     0.16700
C528        C  0.83688814  0.16864082  0.47541533     0.30600
C529        C  0.83283705  0.16539802  0.58792784     0.30600
C530        C  0.85970029  0.14763044  0.50341045    -0.05600
C531        C  0.85600403  0.21219138  0.50410468    -0.06400
C532        C  0.79156137  0.14408459  0.50115466    -0.06300
C533        C  0.85810464  0.14613353  0.56068897    -0.05600
C534        C  0.85395789  0.21078831  0.56156586    -0.06400
C535        C  0.78898071  0.14207912  0.55857025    -0.06300
C536        C  0.88040564  0.12600672  0.57738118    -0.31700
N537        N  0.89456232  0.11509255  0.53155517     0.14800
C538        C  0.88207488  0.12802666  0.48637266    -0.31700
H539        H  0.88882929  0.12340215  0.44422915     0.16800
C540        C  0.87286531  0.25291316  0.57912694    -0.30700
N541        N  0.88641178  0.27905119  0.53388753     0.13600
C542        C  0.87615528  0.25467735  0.48817903    -0.30600
C543        C  0.74546391  0.12061930  0.57237772    -0.30900
N544        N  0.72268379  0.10983008  0.52529166     0.14100
H545        H  0.73089864  0.11442273  0.61294995     0.16700
C546        C  0.75026902  0.12434696  0.48175420    -0.30900
H547        H  0.74054572  0.12063106  0.43925965     0.16700
H548        H  0.88278544  0.26731746  0.44648336     0.16700
H549        H  0.88534160  0.11920547  0.61925979     0.16800
H550        H  0.87700589  0.26379178  0.62120527     0.16700
C551        C  0.66508003  0.33485746  0.02382658     0.30600
C552        C  0.66700371  0.33724636  0.91136153     0.30600
C553        C  0.64355824  0.35779288  0.99699307    -0.05600
C554        C  0.70987335  0.35772437  0.99653454    -0.06400
C555        C  0.64335058  0.29125734  0.99562530    -0.06300
C556        C  0.64416366  0.35915504  0.93952218    -0.05600
C557        C  0.71107417  0.35864359  0.93919369    -0.06400
C558        C  0.64378183  0.29201293  0.93827710    -0.06300
C559        C  0.62262667  0.38060137  0.92444754    -0.31700
N560        N  0.60965293  0.39188488  0.97099534     0.14800
C561        C  0.62222600  0.37821226  0.01527488    -0.31700
H562        H  0.61679600  0.38359586  0.05762697     0.16800
C563        C  0.75393991  0.37953012  0.92297880    -0.30700
N564        N  0.77804135  0.39190498  0.96907328     0.13600
C565        C  0.75165923  0.37903856  0.01390250    -0.30600
C566        C  0.62131267  0.24957498  0.92169515    -0.30900
N567        N  0.60862308  0.22402955  0.96752313     0.14100
H568        H  0.61459845  0.23807730  0.87991729     0.16700
C569        C  0.62192382  0.24907374  0.01265848    -0.30900
H570        H  0.61566990  0.23730871  0.05480381     0.16700
H571        H  0.76256908  0.38454434  0.05592945     0.16700
H572        H  0.61616505  0.38711334  0.88324528     0.16800
H573        H  0.76659563  0.38540407  0.88123316     0.16700
C574        C  0.66984234  0.33513528  0.41160147     0.30600
C575        C  0.66657798  0.33181354  0.52405289     0.30600
C576        C  0.64608603  0.35613770  0.43938892    -0.05600
C577        C  0.64735958  0.28975166  0.43794090    -0.06400
C578        C  0.71390064  0.35766111  0.44065143    -0.06300
C579        C  0.64504742  0.35464804  0.49681633    -0.05600
C580        C  0.64506903  0.28835303  0.49526523    -0.06400
C581        C  0.71146034  0.35470863  0.49794817    -0.06300
C582        C  0.62274520  0.37422930  0.51457662    -0.31700
N583        N  0.60981558  0.38731616  0.47000069     0.14800
C584        C  0.62357348  0.37643833  0.42365732    -0.31700
H585        H  0.61771128  0.38286318  0.38204268     0.16800
C586        C  0.62298360  0.24591256  0.51117102    -0.30700
N587        N  0.61336447  0.22147188  0.46568073     0.13600
C588        C  0.62807641  0.24757139  0.42040059    -0.30600
C589        C  0.75245050  0.37568888  0.51771000    -0.30900
N590        N  0.78008491  0.39255289  0.47440658     0.14100
H591        H  0.76159376  0.37943333  0.56049549     0.16700
C592        C  0.75734314  0.38283919  0.42721082    -0.30900
H593        H  0.77171812  0.39416788  0.38687575     0.16700
H594        H  0.62478208  0.23674130  0.37834814     0.16700
H595        H  0.61561451  0.37812466  0.55681998     0.16800
H596        H  0.61453859  0.23322310  0.55275190     0.16700
O597        O  0.55207910  0.48200526  0.03815445    -0.87800
C598        C  0.56593905  0.06650212  0.91474067     0.88300
Mg599      Mg  0.50344858  0.41523583  0.03792565     1.58100
O600        O  0.51689339  0.07666659  0.03536906    -0.87500
O601        O  0.57002007  0.03770660  0.09106936    -0.74800
C602        C  0.82373941  0.41310460  0.97269115     0.93300
O603        O  0.53480455  0.46306802  0.90831840    -0.76100
O604        O  0.84261600  0.39181655  0.96321315    -0.82200
Mg605      Mg  0.59023835  0.00795273  0.96391845     1.58000
C606        C  0.90781826  0.08806809  0.02417626     0.93200
O607        O  0.65297068  0.05411782  0.00781117    -0.80400
H608        H  0.51916308  0.08897786  0.11570302    -0.05800
C609        C  0.93577729  0.50608088  0.91469404     0.88200
O610        O  0.95818907  0.42733882  0.09248516    -0.74900
O611        O  0.57179054  0.05634050  0.96114407    -0.87700
O612        O  0.94625833  0.10638296  0.00514346    -0.80500
C613        C  0.58377329  0.17818344  0.97046917     0.93300
C614        C  0.67276356  0.09245851  0.02578623     0.93200
Mg615      Mg  0.90591176  0.49674645  0.03545413     1.58000
O616        O  0.84339647  0.45120006  0.99134887    -0.80400
O617        O  0.96114814  0.04145054  0.09025915    -0.74700
O618        O  0.60179211  0.15779685  0.98854532    -0.80500
O619        O  0.60972508  0.45661992  0.96467719    -0.82200
O620        O  0.89384869  0.34714793  0.00943573    -0.80500
C621        C  0.99995664  0.07042694  0.08152433     0.87600
O622        O  0.92430689  0.44837298  0.03750516    -0.87700
O623        O  0.94401540  0.02253579  0.96033503    -0.87800
O624        O  0.92640825  0.46739730  0.90753471    -0.74800
Mg625      Mg  0.58327741  0.09449024  0.03447344     1.58000
O626        O  0.54369376  0.15969231  0.96093252    -0.82200
H627        H  0.55864566  0.47955032  0.11940885    -0.05900
O628        O  0.97907275  0.42777192  0.96320614    -0.87500
H629        H  0.97680632  0.41544532  0.88288037    -0.05800
H630        H  0.91144260  0.43946330  0.11828465    -0.05900
C631        C  0.49602530  0.43403541  0.91706995     0.87600
C632        C  0.56033249  0.99886541  0.08441106     0.88200
C633        C  0.92998443  0.43800965  0.08386794     0.88200
H634        H  0.93811333  0.02533768  0.87898964    -0.05900
O635        O  0.53769923  0.07714575  0.90615600    -0.74900
Mg636      Mg  0.91287186  0.41052084  0.96387035     1.58000
H637        H  0.58440387  0.06496748  0.88028816    -0.05900
C638        C  0.58836461  0.41637012  0.97504301     0.93200
O639        O  0.95133835  0.34457874  0.03826023    -0.82200
C640        C  0.91129079  0.32647070  0.02834312     0.93300
O641        O  0.65387353  0.11380277  0.03488441    -0.82200
Mg642      Mg  0.99237083  0.08912419  0.96085991     1.58200
O643        O  0.54986480  0.39778489  0.99406722    -0.80500
O644        O  0.88610639  0.04779749  0.03414095    -0.82200
O645        O  0.98203421  0.05532976  0.46406977    -0.87800
C646        C  0.56741848  0.06844583  0.58174274     0.88300
Mg647      Mg  0.91535523  0.00787343  0.46777247     1.58100
O648        O  0.57455290  0.01900845  0.46058985    -0.87500
O649        O  0.53611164  0.07394959  0.40688339    -0.74800
C650        C  0.90861421  0.32496444  0.53192613     0.93300
O651        O  0.96472566  0.03768781  0.59443782    -0.74700
O652        O  0.88772233  0.34426059  0.54162393    -0.82200
Mg653      Mg  0.50904166  0.09358235  0.53648867     1.58000
C654        C  0.58525906  0.40862509  0.47403562     0.93200
O655        O  0.55428041  0.15574850  0.48936237    -0.80400
H656        H  0.58529031  0.02077002  0.37950926    -0.05800
C657        C  0.00394450  0.43598501  0.58684007     0.88200
O658        O  0.92637128  0.46244642  0.41307470    -0.74900
O659        O  0.55706639  0.07489380  0.53590075    -0.87700
O660        O  0.60413420  0.44738623  0.49064971    -0.80500
C661        C  0.67702131  0.08510515  0.52055057     0.93300
C662        C  0.59215397  0.17564009  0.46860918     0.93200
Mg663      Mg  0.99371725  0.40725119  0.46744934     1.58000
O664        O  0.94748000  0.34464483  0.51425832    -0.80400
O665        O  0.53846698  0.46297716  0.40966477    -0.74700
O666        O  0.65732018  0.10338126  0.50108033    -0.80500
O667        O  0.95853671  0.11384408  0.53713986    -0.82200
O668        O  0.84526677  0.39898147  0.49917060    -0.80500
C669        C  0.56756428  0.50184007  0.41608767     0.87600
O670        O  0.94597661  0.42665406  0.46709434    -0.87700
O671        O  0.52042194  0.44544893  0.54019614    -0.87800
O672        O  0.96522411  0.42639703  0.59582352    -0.74800
Mg673      Mg  0.59346605  0.08591214  0.45954360     1.58000
O674        O  0.65799325  0.04501651  0.53181453    -0.82200
H675        H  0.97758053  0.06330265  0.38346978    -0.05900
O676        O  0.92739402  0.48207380  0.54260657    -0.87500
H677        H  0.91720448  0.47985223  0.62387863    -0.05800
H678        H  0.93698930  0.41505913  0.38662568    -0.05900
C679        C  0.93523542  0.99897758  0.58792926     0.87600
C680        C  0.49768565  0.06468982  0.41705331     0.88200
C681        C  0.93602233  0.43339326  0.42117139     0.88200
H682        H  0.52349127  0.43731192  0.62111893    -0.05900
O683        O  0.57678849  0.03920962  0.58999680    -0.74900
Mg684      Mg  0.90835243  0.41520576  0.54212831     1.58000
H685        H  0.56683989  0.08708302  0.61616947    -0.05900
C686        C  0.91825368  0.09298768  0.52881106     0.93200
O687        O  0.84472197  0.45758549  0.46934063    -0.82200
C688        C  0.82567678  0.41741466  0.47976795     0.93300
O689        O  0.61334017  0.15683481  0.45756272    -0.82200
Mg690      Mg  0.58733991  0.49358161  0.53583797     1.58200
O691        O  0.89895299  0.05427023  0.51220520    -0.80500
O692        O  0.54476124  0.38708596  0.46691998    -0.82200
C693        C  0.67059709  0.35314367  0.66666727     0.30300
C694        C  0.67191534  0.37646575  0.71335207    -0.36000
C695        C  0.67295962  0.35832067  0.76412062     0.16300
C696        C  0.67263943  0.31987449  0.76876320     0.22100
C697        C  0.67311830  0.29741945  0.72192899    -0.34100
C698        C  0.67205777  0.31560102  0.67108851     0.16200
O699        O  0.66759652  0.36320248  0.61532498    -0.26100
C700        C  0.66674403  0.33153378  0.58619977     0.06000
C701        C  0.67097667  0.30181538  0.61881901    -0.31000
O702        O  0.67068254  0.30748632  0.82043045    -0.22900
C703        C  0.66956028  0.33833677  0.84931155    -0.02800
C704        C  0.67237498  0.37147717  0.81624521    -0.17300
H705        H  0.67101157  0.40608718  0.71037222     0.20700
H706        H  0.67309931  0.26732309  0.72493997     0.19100
H707        H  0.67347393  0.27433857  0.60614458     0.19000
H708        H  0.67364332  0.40096221  0.82843645     0.14900
C709        C  0.64683415  0.32775345  0.26906750     0.30300
C710        C  0.62169456  0.32157293  0.22237667    -0.36000
C711        C  0.64209337  0.32534817  0.17127787     0.16300
C712        C  0.68429062  0.33488863  0.16662449     0.22100
C713        C  0.70887792  0.33970717  0.21316870    -0.34100
C714        C  0.68850049  0.33582422  0.26405245     0.16200
O715        O  0.63493961  0.32684367  0.32089374    -0.26100
C716        C  0.66965740  0.33490129  0.34942445     0.06000
C717        C  0.70343378  0.33944901  0.31591002    -0.31000
O718        O  0.69777532  0.33940516  0.11515165    -0.22900
C719        C  0.66384771  0.33252138  0.08598509    -0.02800
C720        C  0.62786814  0.32253064  0.11884909    -0.17300
H721        H  0.58885039  0.31498491  0.22561830     0.20700
H722        H  0.74192066  0.34689066  0.20991242     0.19100
H723        H  0.73407642  0.34327676  0.32734623     0.19000
H724        H  0.59619794  0.31526518  0.10598805     0.14900
C725        C  0.85343682  0.18144953  0.73080688     0.30300
C726        C  0.87674446  0.20237434  0.77783068    -0.36000
C727        C  0.85583610  0.18510730  0.82857756     0.16300
C728        C  0.81483757  0.14997257  0.83266060     0.22100
C729        C  0.79222700  0.12822396  0.78582188    -0.34100
C730        C  0.81315304  0.14537090  0.73524463     0.16200
O731        O  0.86573615  0.19300670  0.67914353    -0.26100
C732        C  0.83271210  0.16408859  0.65007697     0.06000
C733        C  0.79979995  0.13286863  0.68315839    -0.31000
O734        O  0.80068596  0.14036053  0.88390090    -0.22900
C735        C  0.83296615  0.16964412  0.91337847    -0.02800
C736        C  0.86860625  0.19764170  0.88106633    -0.17300
H737        H  0.90854574  0.23054473  0.77504540     0.20700
H738        H  0.76018477  0.10039381  0.78857233     0.19100
H739        H  0.77064990  0.10433778  0.67141120     0.19000
H740        H  0.89937513  0.22353109  0.89428764     0.14900
C741        C  0.85422253  0.18344877  0.22999576     0.30300
C742        C  0.87857953  0.20425327  0.27650936    -0.36000
C743        C  0.85950316  0.18576828  0.32775660     0.16300
C744        C  0.81931727  0.14954117  0.33259205     0.22100
C745        C  0.79563593  0.12811181  0.28623556    -0.34100
C746        C  0.81463346  0.14652057  0.23523643     0.16200
O747        O  0.86485137  0.19579641  0.17816438    -0.26100
C748        C  0.83139963  0.16659380  0.14992431     0.06000
C749        C  0.79981076  0.13452419  0.18348451    -0.31000
O750        O  0.80650213  0.13900168  0.38408488    -0.22900
C751        C  0.83867288  0.16878569  0.41319295    -0.02800
C752        C  0.87315664  0.19813882  0.38018876    -0.17300
H753        H  0.90973456  0.23323333  0.27303069     0.20700
H754        H  0.76410930  0.09960834  0.28974260     0.19100
H755        H  0.77047530  0.10601634  0.17188416     0.19000
H756        H  0.90348563  0.22502467  0.39282806     0.14900
C757        C  0.83027943  0.66731671  0.08810263     0.30600
C758        C  0.83184367  0.66955840  0.97566233     0.30600
C759        C  0.85376053  0.64654267  0.05979987    -0.05600
C760        C  0.78571041  0.64483571  0.06032839    -0.06400
C761        C  0.85207771  0.71255361  0.06120609    -0.06300
C762        C  0.85487245  0.64840855  0.00257485    -0.05600
C763        C  0.78708716  0.64546559  0.00284898    -0.06400
C764        C  0.85185402  0.71335181  0.00380334    -0.06300
C765        C  0.87619439  0.62805222  0.98433393    -0.31700
N766        N  0.88754974  0.61323287  0.02872566     0.14800
C767        C  0.87389351  0.62393111  0.07523302    -0.31700
H768        H  0.87794698  0.61558177  0.11672693     0.16800
C769        C  0.74550236  0.62555321  0.98482249    -0.30700
N770        N  0.71877984  0.61341451  0.02923042     0.13600
C771        C  0.74255015  0.62560467  0.07560410    -0.30600
C772        C  0.87180701  0.75565836  0.98715303    -0.30900
N773        N  0.88556907  0.78060432  0.03229599     0.14100
H774        H  0.87708979  0.76783504  0.94526933     0.16700
C775        C  0.87402740  0.75496663  0.07795988    -0.30900
H776        H  0.88130184  0.76637026  0.11973095     0.16700
H777        H  0.72917848  0.62151124  0.11672358     0.16700
H778        H  0.88194382  0.62315560  0.94186987     0.16800
H779        H  0.73511285  0.62134148  0.94256889     0.16700
C780        C  0.83668426  0.66851945  0.47563878     0.30600
C781        C  0.83311650  0.66560323  0.58812971     0.30600
C782        C  0.85959387  0.64754971  0.50351919    -0.05600
C783        C  0.85597160  0.71215705  0.50411860    -0.06400
C784        C  0.79146220  0.64406903  0.50171284    -0.06300
C785        C  0.85822023  0.64620127  0.56080581    -0.05600
C786        C  0.85419165  0.71093260  0.56157717    -0.06400
C787        C  0.78916772  0.64223899  0.55912568    -0.06300
C788        C  0.88061678  0.62615870  0.57740931    -0.31700
N789        N  0.89460154  0.61512112  0.53153344     0.14800
C790        C  0.88192011  0.62791080  0.48639426    -0.31700
H791        H  0.88853136  0.62318897  0.44422770     0.16800
C792        C  0.87315095  0.75311937  0.57891785    -0.30700
N793        N  0.88649783  0.77911252  0.53355003     0.13600
C794        C  0.87604556  0.75459264  0.48796390    -0.30600
C795        C  0.74575846  0.62056569  0.57340343    -0.30900
N796        N  0.72270887  0.60960865  0.52651693     0.14100
H797        H  0.73153719  0.61422902  0.61421732     0.16700
C798        C  0.75005806  0.62412055  0.48271960    -0.30900
H799        H  0.74009688  0.62022619  0.44031560     0.16700
H800        H  0.88248456  0.76708772  0.44619683     0.16700
H801        H  0.88575065  0.61951253  0.61927111     0.16800
H802        H  0.87744053  0.76415607  0.62092704     0.16700
C803        C  0.66504855  0.83481202  0.02384519     0.30600
C804        C  0.66669280  0.83729613  0.91136095     0.30600
C805        C  0.64368274  0.85798829  0.99729727    -0.05600
C806        C  0.70975803  0.85749363  0.99639563    -0.06400
C807        C  0.64308361  0.79125422  0.99556560    -0.06300
C808        C  0.64406792  0.85936385  0.93982310    -0.05600
C809        C  0.71083125  0.85845371  0.93904746    -0.06400
C810        C  0.64336367  0.79205880  0.93821880    -0.06300
C811        C  0.62215757  0.88054520  0.92515943    -0.31700
N812        N  0.60948257  0.89189680  0.97187168     0.14800
C813        C  0.62239151  0.87836327  0.01593293    -0.31700
H814        H  0.61713016  0.88372289  0.05836086     0.16800
C815        C  0.75367202  0.87931258  0.92270044    -0.30700
N816        N  0.77785427  0.89158639  0.96873108     0.13600
C817        C  0.75156202  0.87870352  0.01363895    -0.30600
C818        C  0.62113253  0.74963613  0.92157842    -0.30900
N819        N  0.60871867  0.72405958  0.96738043     0.14100
H820        H  0.61450229  0.73818828  0.87977056     0.16700
C821        C  0.62196425  0.74906773  0.01254276    -0.30900
H822        H  0.61595934  0.73726765  0.05467211     0.16700
H823        H  0.76254395  0.88419467  0.05563550     0.16700
H824        H  0.61495396  0.88665329  0.88418682     0.16800
H825        H  0.76625553  0.88529481  0.88091621     0.16700
C826        C  0.66968208  0.83490603  0.41156755     0.30600
C827        C  0.66653237  0.83190292  0.52400189     0.30600
C828        C  0.64600898  0.85604894  0.43919516    -0.05600
C829        C  0.64715288  0.78958986  0.43813863    -0.06400
C830        C  0.71377854  0.85747429  0.44054674    -0.06300
C831        C  0.64502349  0.85474192  0.49662761    -0.05600
C832        C  0.64498870  0.78839185  0.49545685    -0.06400
C833        C  0.71139340  0.85466139  0.49784804    -0.06300
C834        C  0.62267123  0.87434155  0.51419078    -0.31700
N835        N  0.60971860  0.88728980  0.46950635     0.14800
C836        C  0.62346772  0.87627876  0.42327589    -0.31700
H837        H  0.61756721  0.88255328  0.38160887     0.16800
C838        C  0.62336991  0.74604238  0.51172432    -0.30700
N839        N  0.61362994  0.72141936  0.46638252     0.13600
C840        C  0.62799762  0.74733880  0.42090563    -0.30600
C841        C  0.75239942  0.87570673  0.51755373    -0.30900
N842        N  0.77999804  0.89245960  0.47420322     0.14100
H843        H  0.76157860  0.87958668  0.56032903     0.16700
C844        C  0.75721495  0.88262325  0.42703301    -0.30900
H845        H  0.77155781  0.89387379  0.38666650     0.16700
H846        H  0.62462065  0.73633836  0.37892835     0.16700
H847        H  0.61548899  0.87834111  0.55636291     0.16800
H848        H  0.61551014  0.73361460  0.55348504     0.16700
O849        O  0.55169476  0.98196976  0.03869786    -0.87800
C850        C  0.56609361  0.56657337  0.91447020     0.88300
Mg851      Mg  0.50311592  0.91517726  0.03858285     1.58100
O852        O  0.51730027  0.57673567  0.03537301    -0.87500
O853        O  0.57052612  0.53769993  0.09065952    -0.74800
C854        C  0.82355429  0.91287592  0.97226590     0.93300
O855        O  0.53467740  0.96290220  0.90884613    -0.76100
O856        O  0.84247134  0.89159511  0.96304215    -0.82200
Mg857      Mg  0.59049197  0.50802538  0.96329733     1.58000
C858        C  0.90827744  0.58827551  0.02455128     0.93200
O859        O  0.65323887  0.55410447  0.00716827    -0.80400
H860        H  0.51977754  0.58906363  0.11572103    -0.05800
C861        C  0.93570945  0.00588654  0.91445938     0.88200
O862        O  0.95771433  0.92732608  0.09278296    -0.74900
O863        O  0.57206440  0.55642481  0.96081415    -0.87700
O864        O  0.94669045  0.60655369  0.00544774    -0.80500
C865        C  0.58398773  0.67821632  0.97032877     0.93300
C866        C  0.67305024  0.59241410  0.02524083     0.93200
Mg867      Mg  0.90553132  0.99659830  0.03509059     1.58000
O868        O  0.84315549  0.95102440  0.99075381    -0.80400
O869        O  0.96168800  0.54156670  0.09045424    -0.74700
O870        O  0.60208958  0.65789060  0.98835684    -0.80500
O871        O  0.60946666  0.95657120  0.96561211    -0.82200
O872        O  0.89362774  0.84706597  0.00988250    -0.80500
C873        C  0.00048553  0.57051830  0.08157772     0.87600
O874        O  0.92399903  0.94829774  0.03742706    -0.87700
O875        O  0.94425045  0.52265356  0.96060188    -0.87800
O876        O  0.92638593  0.96719141  0.90747228    -0.74800
Mg877      Mg  0.58366618  0.59453633  0.03420126     1.58000
O878        O  0.54389890  0.65967525  0.96090917    -0.82200
H879        H  0.55806654  0.97958091  0.12000219    -0.05900
O880        O  0.97889560  0.92756722  0.96363241    -0.87500
H881        H  0.97681155  0.91516485  0.88334746    -0.05800
H882        H  0.91086139  0.93943117  0.11814742    -0.05900
C883        C  0.49591839  0.93379831  0.91753207     0.87600
C884        C  0.56082471  0.49886304  0.08389021     0.88200
C885        C  0.92952411  0.93796695  0.08388650     0.88200
H886        H  0.93808603  0.52559319  0.87933873    -0.05900
O887        O  0.53781146  0.57718389  0.90605621    -0.74900
Mg888      Mg  0.91271637  0.91033690  0.96398852     1.58000
H889        H  0.58447809  0.56504011  0.87991977    -0.05900
C890        C  0.58816304  0.91633687  0.97609163     0.93200
O891        O  0.95104189  0.84452829  0.03911138    -0.82200
C892        C  0.91101179  0.82641588  0.02907094     0.93300
O893        O  0.65421137  0.61379641  0.03439837    -0.82200
Mg894      Mg  0.99261791  0.58918387  0.96098091     1.58200
O895        O  0.54966339  0.89771717  0.99511332    -0.80500
O896        O  0.88657187  0.54801982  0.03463082    -0.82200
O897        O  0.98221978  0.55528717  0.46451656    -0.87800
C898        C  0.56714724  0.56814125  0.58274361     0.88300
Mg899      Mg  0.91551156  0.50787076  0.46798423     1.58100
O900        O  0.57471689  0.51895564  0.46160588    -0.87500
O901        O  0.53652149  0.57396658  0.40769172    -0.74800
C902        C  0.90865918  0.82501972  0.53141135     0.93300
O903        O  0.96448643  0.53770199  0.59488739    -0.74700
O904        O  0.88775083  0.84429784  0.54107921    -0.82200
Mg905      Mg  0.50905010  0.59355916  0.53701359     1.58000
C906        C  0.58517528  0.90862824  0.47335445     0.93200
O907        O  0.55444534  0.65571195  0.48991728    -0.80400
H908        H  0.58555358  0.52087250  0.38053366    -0.05800
C909        C  0.00407028  0.93615097  0.58612993     0.88200
O910        O  0.92620607  0.96251227  0.41269218    -0.74900
O911        O  0.55699580  0.57473648  0.53684344    -0.87700
O912        O  0.60408036  0.94745453  0.48973507    -0.80500
C913        C  0.67702718  0.58490722  0.52204351     0.93300
C914        C  0.59243237  0.67559482  0.46951561     0.93200
Mg915      Mg  0.99367027  0.90729224  0.46679647     1.58000
O916        O  0.94751796  0.84471124  0.51372636    -0.80400
O917        O  0.53830888  0.96290030  0.40886178    -0.74700
O918        O  0.65732771  0.60321896  0.50269069    -0.80500
O919        O  0.95859119  0.61389906  0.53725662    -0.82200
O920        O  0.84524800  0.89891472  0.49867702    -0.80500
C921        C  0.56736290  0.00180066  0.41513309     0.87600
O922        O  0.94592903  0.92670514  0.46651822    -0.87700
O923        O  0.52042935  0.94557861  0.53946880    -0.87800
O924        O  0.96533216  0.92647404  0.59520650    -0.74800
Mg925      Mg  0.59367397  0.58584553  0.46073378     1.58000
O926        O  0.65800643  0.54479178  0.53311786    -0.82200
H927        H  0.97806556  0.56328307  0.38384776    -0.05900
O928        O  0.92739921  0.98206589  0.54222378    -0.87500
H929        H  0.91756370  0.97983104  0.62357503    -0.05800
H930        H  0.93690265  0.91522322  0.38602989    -0.05900
C931        C  0.93503000  0.49898975  0.58830303     0.87600
C932        C  0.49804843  0.56466763  0.41759422     0.88200
C933        C  0.93593210  0.93349448  0.42064777     0.88200
H934        H  0.52361878  0.93750003  0.62038555    -0.05900
O935        O  0.57655898  0.53892838  0.59098472    -0.74900
Mg936      Mg  0.90837246  0.91521655  0.54161677     1.58000
H937        H  0.56638943  0.58664958  0.61721495    -0.05900
C938        C  0.91833053  0.59305276  0.52876396     0.93200
O939        O  0.84457828  0.95755264  0.46929641    -0.82200
C940        C  0.82559371  0.91735418  0.47950667     0.93300
O941        O  0.61366255  0.65677829  0.45884657    -0.82200
Mg942      Mg  0.58735803  0.99375394  0.53483001     1.58200
O943        O  0.89907109  0.55434459  0.51212591    -0.80500
O944        O  0.54466614  0.88706952  0.46634350    -0.82200
C945        C  0.66881409  0.85227146  0.66665933     0.30300
C946        C  0.66846314  0.87475567  0.71334090    -0.36000
C947        C  0.67094591  0.85743802  0.76402574     0.16300
C948        C  0.67352878  0.82052968  0.76870442     0.22100
C949        C  0.67563432  0.79893774  0.72180188    -0.34100
C950        C  0.67315904  0.81632575  0.67094783     0.16200
O951        O  0.66497790  0.86181137  0.61541177    -0.26100
C952        C  0.66666372  0.83152373  0.58611717     0.06000
C953        C  0.67312907  0.80313062  0.61855052    -0.31000
O954        O  0.67265821  0.80871037  0.82045188    -0.22900
C955        C  0.66919773  0.83834332  0.84926118    -0.02800
C956        C  0.66954283  0.87022504  0.81603770    -0.17300
H957        H  0.66534013  0.90315403  0.71041648     0.20700
H958        H  0.67792718  0.77006689  0.72476421     0.19100
H959        H  0.67741108  0.77674929  0.60555256     0.19000
H960        H  0.66922755  0.89898032  0.82786873     0.14900
C961        C  0.64674213  0.82749308  0.26902731     0.30300
C962        C  0.62164911  0.82137865  0.22232164    -0.36000
C963        C  0.64207012  0.82514425  0.17125313     0.16300
C964        C  0.68426095  0.83465757  0.16661907     0.22100
C965        C  0.70880275  0.83940297  0.21318627    -0.34100
C966        C  0.68838718  0.83549209  0.26405247     0.16200
O967        O  0.63481684  0.82658073  0.32083511    -0.26100
C968        C  0.66948594  0.83454103  0.34940082     0.06000
C969        C  0.70326254  0.83903996  0.31592647    -0.31000
O970        O  0.69777432  0.83922395  0.11514725    -0.22900
C971        C  0.66385377  0.83237302  0.08598772    -0.02800
C972        C  0.62786620  0.82235727  0.11883928    -0.17300
H973        H  0.58881994  0.81483990  0.22552990     0.20700
H974        H  0.74183524  0.84655052  0.20996368     0.19100
H975        H  0.73387520  0.84280923  0.32739676     0.19000
H976        H  0.59620422  0.81511828  0.10597663     0.14900
C977        C  0.85315028  0.68238714  0.73094614     0.30300
C978        C  0.87589847  0.70404769  0.77791735    -0.36000
C979        C  0.85553233  0.68602525  0.82865766     0.16300
C980        C  0.81549653  0.64951492  0.83283901     0.22100
C981        C  0.79346059  0.62708553  0.78599666    -0.34100
C982        C  0.81390672  0.64496103  0.73536226     0.16200
O983        O  0.86512806  0.69438227  0.67933644    -0.26100
C984        C  0.83298979  0.66435925  0.65023158     0.06000
C985        C  0.80097882  0.63206040  0.68320248    -0.31000
O986        O  0.80169567  0.63933522  0.88416507    -0.22900
C987        C  0.83322028  0.66970573  0.91353588    -0.02800
C988        C  0.86811235  0.69890131  0.88106881    -0.17300
H989        H  0.90690666  0.73325932  0.77509738     0.20700
H990        H  0.76220282  0.59816679  0.78879180     0.19100
H991        H  0.77258448  0.60283408  0.67115819     0.19000
H992        H  0.89838030  0.72568527  0.89405901     0.14900
C993        C  0.85409375  0.68306841  0.23025471     0.30300
C994        C  0.87849588  0.70372601  0.27678480    -0.36000
C995        C  0.85923609  0.68541811  0.32801279     0.16300
C996        C  0.81881931  0.64950902  0.33283875     0.22100
C997        C  0.79506639  0.62821886  0.28646061    -0.34100
C998        C  0.81426237  0.64644447  0.23546742     0.16200
O999        O  0.86491811  0.69528694  0.17842500    -0.26100
C1000       C  0.83135136  0.66631883  0.15013850     0.06000
C1001       C  0.79947402  0.63451070  0.18369179    -0.31000
O1002       O  0.80592670  0.63909001  0.38433690    -0.22900
C1003       C  0.83831109  0.66861484  0.41342886    -0.02800
C1004       C  0.87295703  0.69768386  0.38042965    -0.17300
H1005       H  0.90984768  0.73245772  0.27332779     0.20700
H1006       H  0.76337167  0.59994565  0.28994024     0.19100
H1007       H  0.77000043  0.60616059  0.17211022     0.19000
H1008       H  0.90344587  0.72433017  0.39308645     0.14900
loop_ 
_geom_bond_atom_site_label_1 
_geom_bond_atom_site_label_2 
_geom_bond_distance 
_geom_bond_site_symmetry_2 
_ccdc_geom_bond_type 
C1            C3   1.538       .  S
C1            C5   1.542       .  S
C1            C4   1.551       .  S
C1          C244   1.509       .  S
C2            C6   1.524   1_556  S
C2            C8   1.532   1_556  S
C2            C7   1.532   1_556  S
C2          C231   1.510       .  S
C3           C11   1.383       .  A
C3            C6   1.391       .  A
C4           C15   1.389       .  A
C4            C7   1.397       .  A
C5           C19   1.385       .  A
C5            C8   1.395       .  A
C6            C9   1.369   1_554  A
C7           C13   1.372   1_554  A
C8           C16   1.371   1_554  A
C9           N10   1.354   1_556  A
C9           H22   1.083       .  S
N10          C11   1.360       .  A
N10         C102   1.427       .  S
C11          H12   1.082       .  S
C13          N14   1.352   1_556  A
C13          H23   1.082       .  S
N14          C15   1.358       .  A
N14         C110   1.428       .  S
C15          H21   1.081       .  S
C16          N17   1.354   1_556  A
C16          H18   1.082       .  S
N17          C19   1.358       .  A
N17         C136   1.427       .  S
C19          H20   1.082       .  S
C24          C26   1.526       .  S
C24          C28   1.533       .  S
C24          C27   1.533       .  S
C24         C247   1.513       .  S
C25          C29   1.537       .  S
C25          C31   1.549       .  S
C25          C30   1.542       .  S
C25         C228   1.511       .  S
C26          C34   1.370       .  A
C26          C29   1.392       .  A
C27          C38   1.371       .  A
C27          C30   1.397       .  A
C28          C42   1.375       .  A
C28          C31   1.396       .  A
C29          C32   1.383       .  A
C30          C36   1.384       .  A
C31          C39   1.388       .  A
C32          N33   1.358       .  A
C32          H45   1.082       .  S
N33          C34   1.355       .  A
N33         C182   1.426       .  S
C34          H35   1.083       .  S
C36          N37   1.358       .  A
C36          H46   1.082       .  S
N37          C38   1.354       .  A
N37         C146   1.427       .  S
C38          H44   1.082       .  S
C39          N40   1.356       .  A
C39          H41   1.079       .  S
N40          C42   1.351       .  A
N40         C157   1.427       .  S
C42          H43   1.081       .  S
C47          C49   1.531   1_554  S
C47          C51   1.527   1_554  S
C47          C50   1.532   1_554  S
C47         C215   1.511       .  S
C48          C52   1.550       .  S
C48          C54   1.542       .  S
C48          C53   1.537       .  S
C48         C199   1.509       .  S
C49          C57   1.372   1_556  A
C49          C52   1.397       .  A
C50          C61   1.372   1_556  A
C50          C53   1.393       .  A
C51          C65   1.369   1_556  A
C51          C54   1.394       .  A
C52          C55   1.388       .  A
C53          C59   1.383       .  A
C54          C62   1.385       .  A
C55          N56   1.358       .  A
C55          H68   1.081       .  S
N56          C57   1.353   1_556  A
N56         C134   1.428       .  S
C57          H58   1.082       .  S
C59          N60   1.358       .  A
C59          H69   1.082       .  S
N60          C61   1.353   1_556  A
N60          C98   1.425       .  S
C61          H67   1.082       .  S
C62          N63   1.359       .  A
C62          H64   1.082       .  S
N63          C65   1.354   1_556  A
N63         C109   1.427       .  S
C65          H66   1.083       .  S
C70          C72   1.546       .  S
C70          C74   1.551       .  S
C70          C73   1.541       .  S
C70         C212   1.511       .  S
C71          C75   1.532       .  S
C71          C77   1.523       .  S
C71          C76   1.529       .  S
C71         C196   1.510       .  S
C72          C80   1.388       .  A
C72          C75   1.396       .  A
C73          C84   1.385       .  A
C73          C76   1.394       .  A
C74          C88   1.389       .  A
C74          C77   1.394       .  A
C75          C78   1.372       .  A
C76          C82   1.369       .  A
C77          C85   1.369       .  A
C78          N79   1.354       .  A
C78          H91   1.082       .  S
N79          C80   1.361       .  A
N79         C150   1.431       .  S
C80          H81   1.082       .  S
C82          N83   1.352       .  A
C82          H92   1.082       .  S
N83          C84   1.359       .  A
N83         C158   1.426       .  S
C84          H90   1.082       .  S
C85          N86   1.351       .  A
C85          H87   1.083       .  S
N86          C88   1.358       .  A
N86         C184   1.427       .  S
C88          H89   1.080       .  S
O93         Mg95   2.145       .  S
O93        Mg353   2.172   1_554  S
O93         C380   1.235       .  S
C94         H133   1.081       .  S
C94         O107   1.235       .  S
C94         O131   1.269       .  A
Mg95        O628   2.164   1_454  S
Mg95        O139   2.307   1_554  S
Mg95        O639   2.275   1_455  S
Mg95        O610   2.293   1_455  S
O96        Mg121   2.136       .  S
O96        Mg642   2.162   1_454  S
O96         C621   1.234   1_455  S
O97         C128   1.269   1_545  A
O97        Mg121   2.292       .  S
C98         O100   1.271       .  A
C98         O112   1.274       .  A
O99         C127   1.267   1_455  A
O99        Mg353   2.289       .  S
O100       Mg132   2.263       .  S
Mg101       O107   2.148       .  S
Mg101       O345   2.172   1_546  S
Mg101       O103   2.301   1_556  S
Mg101       O351   2.289   1_545  S
Mg101       O367   2.271   1_545  S
C102        O140   1.272       .  A
C102        O108   1.274       .  A
O103        C110   1.275       .  A
H104        C621   1.081   1_455  S
C105        H382   1.081       .  S
C105        O371   1.235       .  S
C105        O120   1.268       .  A
O106        C129   1.269       .  A
O106       Mg599   2.293       .  S
O107       Mg121   2.169   1_556  S
O108       Mg138   2.298   1_554  S
C109        O122   1.272       .  A
C109        O114   1.275       .  A
C110        O137   1.271       .  A
Mg111       O118   2.146       .  S
Mg111       O371   2.170   1_554  S
Mg111       O112   2.293   1_554  S
Mg111       O365   2.290       .  S
Mg111       O392   2.270       .  S
O113        C117   1.268       .  A
O113       Mg363   2.290   1_545  S
O114       Mg121   2.300   1_556  S
O115        C134   1.273       .  A
O115       Mg353   2.272       .  S
O116        C136   1.274       .  A
O116       Mg132   2.294   1_554  S
C117        H608   1.081       .  S
C117        O600   1.234       .  S
O118       Mg132   2.169   1_554  S
O118        C129   1.235       .  S
O119       Mg138   2.138       .  S
O119       Mg363   2.170   1_546  S
O119        C357   1.236       .  S
O120       Mg132   2.288       .  S
Mg121       O137   2.268       .  S
O122       Mg642   2.267   1_455  S
H123        C380   1.081       .  S
O124       Mg132   2.135       .  S
O124       Mg599   2.164   1_556  S
O124        C631   1.234       .  S
H125        C631   1.081       .  S
H126        C129   1.081       .  S
C127        H629   1.081       .  S
C127        O628   1.234       .  S
C128        H375   1.081       .  S
C128        O345   1.235       .  S
H130        C357   1.081       .  S
O131       Mg642   2.294   1_455  S
C134        O139   1.276       .  A
O135        C136   1.273       .  A
O135       Mg599   2.275       .  S
Mg138       O600   2.162   1_556  S
Mg138       O626   2.267       .  S
Mg138       O635   2.294       .  S
O140       Mg363   2.270   1_545  S
O141       Mg143   2.133       .  S
O141       Mg653   2.159       .  S
O141        C680   1.234       .  S
C142        H181   1.081       .  S
C142        O155   1.235       .  S
C142        O179   1.268       .  A
Mg143       O424   2.172   1_545  S
Mg143       O187   2.298       .  S
Mg143       O435   2.263   1_545  S
Mg143       O406   2.291   1_545  S
O144       Mg169   2.144       .  S
O144       Mg438   2.169   1_545  S
O144        C417   1.235       .  S
O145        C176   1.268   1_455  A
O145       Mg169   2.290       .  S
C146        O148   1.272       .  A
C146        O160   1.275       .  A
O147        C175   1.269   1_545  A
O147       Mg653   2.292       .  S
O148       Mg180   2.269       .  S
Mg149       O155   2.141       .  S
Mg149       O645   2.159   1_455  S
Mg149       O151   2.286       .  S
Mg149       O651   2.292   1_455  S
Mg149       O667   2.268   1_455  S
C150        O188   1.274       .  A
C150        O156   1.276       .  A
O151        C158   1.273       .  A
H152        C417   1.081       .  S
C153        H682   1.081       .  S
C153        O671   1.236       .  S
C153        O168   1.270       .  A
O154        C177   1.268       .  A
O154       Mg395   2.291       .  S
O155       Mg169   2.174       .  S
O156       Mg186   2.309       .  S
C157        O170   1.272       .  A
C157        O162   1.274       .  A
C158        O185   1.273       .  A
Mg159       O166   2.150       .  S
Mg159       O671   2.163       .  S
Mg159       O160   2.300       .  S
Mg159       O665   2.290       .  S
Mg159       O692   2.283       .  S
O161        C165   1.268       .  A
O161       Mg663   2.290   1_455  S
O162       Mg169   2.300       .  S
O163        C182   1.271       .  A
O163       Mg653   2.268       .  S
O164        C184   1.275       .  A
O164       Mg180   2.302       .  S
C165        H404   1.081       .  S
C165        O396   1.235       .  S
O166       Mg180   2.168       .  S
O166        C177   1.235       .  S
O167       Mg186   2.145       .  S
O167       Mg663   2.163   1_455  S
O167        C657   1.236       .  S
O168       Mg180   2.298       .  S
Mg169       O185   2.274       .  S
O170       Mg438   2.267   1_545  S
H171        C680   1.081       .  S
O172       Mg180   2.142       .  S
O172       Mg395   2.173       .  S
O172        C427   1.235       .  S
H173        C427   1.081       .  S
H174        C177   1.081       .  S
C175        H425   1.081       .  S
C175        O424   1.235       .  S
C176        H675   1.081       .  S
C176        O645   1.234       .  S
H178        C657   1.081       .  S
O179       Mg438   2.290   1_545  S
C182        O187   1.274       .  A
O183        C184   1.271       .  A
O183       Mg395   2.263       .  S
Mg186       O396   2.168       .  S
Mg186       O422   2.268       .  S
Mg186       O431   2.290       .  S
O188       Mg663   2.283   1_455  S
C189        C194   1.379       .  A
C189        C190   1.402       .  A
C189        O195   1.317       .  A
C190        C191   1.401       .  A
C190        H201   1.082       .  S
C191        C200   1.358       .  A
C191        C192   1.379       .  A
C192        C193   1.404       .  A
C192        O198   1.319       .  A
C193        C194   1.404       .  A
C193        H202   1.082       .  S
C194        C197   1.360       .  A
O195        C196   1.331       .  A
C196        C197   1.395       .  A
C197        H203   1.081       .  S
O198        C199   1.332       .  A
C199        C200   1.392       .  A
C200        H204   1.080       .  S
C205        C210   1.378       .  A
C205        C206   1.406       .  A
C205        O211   1.320       .  A
C206        C207   1.405       .  A
C206        H217   1.082       .  S
C207        C216   1.363       .  A
C207        C208   1.379       .  A
C208        C209   1.400       .  A
C208        O214   1.316       .  A
C209        C210   1.400       .  A
C209        H218   1.082       .  S
C210        C213   1.357       .  A
O211        C212   1.334       .  A
C212        C213   1.393       .  A
C213        H219   1.078       .  S
O214        C215   1.329       .  A
C215        C216   1.395       .  A
C216        H220   1.082       .  S
C221        C226   1.378       .  A
C221        C222   1.405       .  A
C221        O227   1.320       .  A
C222        C223   1.404       .  A
C222        H233   1.082       .  S
C223        C232   1.361       .  A
C223        C224   1.379       .  A
C224        C225   1.400       .  A
C224        O230   1.316       .  A
C225        C226   1.400       .  A
C225        H234   1.082       .  S
C226        C229   1.356       .  A
O227        C228   1.333       .  A
C228        C229   1.393       .  A
C229        H235   1.078       .  S
O230        C231   1.330       .  A
C231        C232   1.394       .  A
C232        H236   1.082       .  S
C237        C242   1.378       .  A
C237        C238   1.407       .  A
C237        O243   1.320       .  A
C238        C239   1.406       .  A
C238        H249   1.082       .  S
C239        C248   1.365       .  A
C239        C240   1.379       .  A
C240        C241   1.400       .  A
C240        O246   1.314       .  A
C241        C242   1.399       .  A
C241        H250   1.082       .  S
C242        C245   1.357       .  A
O243        C244   1.333       .  A
C244        C245   1.391       .  A
C245        H251   1.080       .  S
O246        C247   1.330       .  A
C247        C248   1.395       .  A
C248        H252   1.081       .  S
C253        C255   1.538       .  S
C253        C257   1.542       .  S
C253        C256   1.551       .  S
C253        C496   1.509       .  S
C254        C258   1.524   1_556  S
C254        C260   1.533   1_556  S
C254        C259   1.531   1_556  S
C254        C483   1.510       .  S
C255        C263   1.383       .  A
C255        C258   1.391       .  A
C256        C267   1.388       .  A
C256        C259   1.397       .  A
C257        C271   1.385       .  A
C257        C260   1.395       .  A
C258        C261   1.369   1_554  A
C259        C265   1.372   1_554  A
C260        C268   1.371   1_554  A
C261        N262   1.354   1_556  A
C261        H274   1.083       .  S
N262        C263   1.359       .  A
N262        C354   1.427       .  S
C263        H264   1.082       .  S
C265        N266   1.352   1_556  A
C265        H275   1.082       .  S
N266        C267   1.358       .  A
N266        C362   1.427       .  S
C267        H273   1.081       .  S
C268        N269   1.353   1_556  A
C268        H270   1.082       .  S
N269        C271   1.358       .  A
N269        C388   1.427       .  S
C271        H272   1.082       .  S
C276        C278   1.526       .  S
C276        C280   1.533       .  S
C276        C279   1.533       .  S
C276        C499   1.512       .  S
C277        C281   1.537       .  S
C277        C283   1.548       .  S
C277        C282   1.542       .  S
C277        C480   1.510       .  S
C278        C286   1.370       .  A
C278        C281   1.392       .  A
C279        C290   1.371       .  A
C279        C282   1.397       .  A
C280        C294   1.374       .  A
C280        C283   1.396       .  A
C281        C284   1.383       .  A
C282        C288   1.384       .  A
C283        C291   1.387       .  A
C284        N285   1.358       .  A
C284        H297   1.082       .  S
N285        C286   1.355       .  A
N285        C434   1.427       .  S
C286        H287   1.083       .  S
C288        N289   1.358       .  A
C288        H298   1.082       .  S
N289        C290   1.354       .  A
N289        C398   1.427       .  S
C290        H296   1.082       .  S
C291        N292   1.356       .  A
C291        H293   1.080       .  S
N292        C294   1.351       .  A
N292        C409   1.427       .  S
C294        H295   1.081       .  S
C299        C301   1.530   1_554  S
C299        C303   1.526   1_554  S
C299        C302   1.531   1_554  S
C299        C467   1.511       .  S
C300        C304   1.551       .  S
C300        C306   1.542       .  S
C300        C305   1.538       .  S
C300        C451   1.510       .  S
C301        C309   1.372   1_556  A
C301        C304   1.397       .  A
C302        C313   1.372   1_556  A
C302        C305   1.394       .  A
C303        C317   1.369   1_556  A
C303        C306   1.394       .  A
C304        C307   1.388       .  A
C305        C311   1.383       .  A
C306        C314   1.385       .  A
C307        N308   1.357       .  A
C307        H320   1.080       .  S
N308        C309   1.352   1_556  A
N308        C386   1.428       .  S
C309        H310   1.082       .  S
C311        N312   1.358       .  A
C311        H321   1.082       .  S
N312        C313   1.353   1_556  A
N312        C350   1.425       .  S
C313        H319   1.082       .  S
C314        N315   1.359       .  A
C314        H316   1.082       .  S
N315        C317   1.354   1_556  A
N315        C361   1.427       .  S
C317        H318   1.083       .  S
C322        C324   1.546       .  S
C322        C326   1.551       .  S
C322        C325   1.541       .  S
C322        C464   1.511       .  S
C323        C327   1.533       .  S
C323        C329   1.522       .  S
C323        C328   1.528       .  S
C323        C448   1.510       .  S
C324        C332   1.388       .  A
C324        C327   1.396       .  A
C325        C336   1.385       .  A
C325        C328   1.394       .  A
C326        C340   1.389       .  A
C326        C329   1.394       .  A
C327        C330   1.373       .  A
C328        C334   1.369       .  A
C329        C337   1.369       .  A
C330        N331   1.354       .  A
C330        H343   1.082       .  S
N331        C332   1.361       .  A
N331        C402   1.431       .  S
C332        H333   1.082       .  S
C334        N335   1.353       .  A
C334        H344   1.082       .  S
N335        C336   1.359       .  A
N335        C410   1.426       .  S
C336        H342   1.082       .  S
C337        N338   1.351       .  A
C337        H339   1.083       .  S
N338        C340   1.358       .  A
N338        C436   1.427       .  S
C340        H341   1.080       .  S
O345       Mg347   2.145       .  S
C346        H385   1.081       .  S
C346        O359   1.235       .  S
C346        O383   1.269       .  A
Mg347       O880   2.165   1_454  S
Mg347       O391   2.307   1_554  S
Mg347       O891   2.275   1_455  S
Mg347       O862   2.292   1_455  S
O348       Mg894   2.162   1_454  S
O348       Mg373   2.135       .  S
O348        C873   1.234       .  S
O349        C380   1.269       .  A
O349       Mg373   2.292       .  S
C350        O352   1.271       .  A
C350        O364   1.274       .  A
O351        C379   1.267   1_455  A
O352       Mg384   2.262       .  S
Mg353       O359   2.148       .  S
Mg353       O355   2.300   1_556  S
C354        O392   1.272       .  A
C354        O360   1.274       .  A
O355        C362   1.275       .  A
H356        C873   1.081       .  S
C357        O372   1.269   1_545  A
O358        C381   1.269       .  A
O358       Mg851   2.292       .  S
O359       Mg373   2.169   1_556  S
O360       Mg390   2.297   1_554  S
C361        O374   1.271       .  A
C361        O366   1.275       .  A
C362        O389   1.271       .  A
Mg363       O370   2.146       .  S
Mg363       O364   2.293   1_554  S
O365        C369   1.268       .  A
O366       Mg373   2.301   1_556  S
O367        C386   1.273       .  A
O368        C388   1.274       .  A
O368       Mg384   2.295   1_554  S
C369        H860   1.081       .  S
C369        O852   1.234       .  S
O370       Mg384   2.168   1_554  S
O370        C381   1.235       .  S
O371       Mg390   2.137       .  S
O372       Mg384   2.289       .  S
Mg373       O389   2.267       .  S
O374       Mg894   2.264   1_455  S
O376       Mg851   2.165   1_556  S
O376       Mg384   2.135       .  S
O376        C883   1.234       .  S
H377        C883   1.081       .  S
H378        C381   1.081       .  S
C379        H881   1.081       .  S
C379        O880   1.234       .  S
O383       Mg894   2.294   1_455  S
C386        O391   1.276       .  A
O387        C388   1.273       .  A
O387       Mg851   2.276       .  S
Mg390       O852   2.162   1_556  S
Mg390       O878   2.264       .  S
Mg390       O887   2.294       .  S
O393       Mg395   2.133       .  S
O393       Mg905   2.160       .  S
O393        C932   1.234       .  S
C394        H433   1.081       .  S
C394        O407   1.235       .  S
C394        O431   1.268       .  A
Mg395       O439   2.298       .  S
O396       Mg421   2.143       .  S
O397        C428   1.268   1_455  A
O397       Mg421   2.290       .  S
C398        O400   1.272       .  A
C398        O412   1.275       .  A
O399        C427   1.269       .  A
O399       Mg905   2.292       .  S
O400       Mg432   2.268       .  S
Mg401       O897   2.160   1_455  S
Mg401       O407   2.142       .  S
Mg401       O903   2.292   1_455  S
Mg401       O919   2.268   1_455  S
Mg401       O403   2.286       .  S
C402        O440   1.274       .  A
C402        O408   1.276       .  A
O403        C410   1.273       .  A
C405        H934   1.081       .  S
C405        O923   1.236       .  S
C405        O420   1.270       .  A
O406        C429   1.268       .  A
O407       Mg421   2.174       .  S
O408       Mg438   2.310       .  S
C409        O422   1.272       .  A
C409        O414   1.274       .  A
C410        O437   1.272       .  A
Mg411       O418   2.150       .  S
Mg411       O923   2.163       .  S
Mg411       O412   2.300       .  S
Mg411       O917   2.291       .  S
Mg411       O944   2.283       .  S
O413        C417   1.268   1_565  A
O413       Mg915   2.290   1_455  S
O414       Mg421   2.299       .  S
O415        C434   1.272       .  A
O415       Mg905   2.268       .  S
O416        C436   1.275       .  A
O416       Mg432   2.302       .  S
O418       Mg432   2.168       .  S
O418        C429   1.235       .  S
O419       Mg915   2.163   1_455  S
O419       Mg438   2.146       .  S
O419        C909   1.236       .  S
O420       Mg432   2.298       .  S
Mg421       O437   2.274       .  S
H423        C932   1.081       .  S
O424       Mg432   2.141       .  S
H426        C429   1.081       .  S
C428        H927   1.081       .  S
C428        O897   1.234       .  S
H430        C909   1.081       .  S
C434        O439   1.274       .  A
O435        C436   1.271       .  A
O440       Mg915   2.283   1_455  S
C441        C446   1.379       .  A
C441        C442   1.400       .  A
C441        O447   1.317       .  A
C442        C443   1.400       .  A
C442        H453   1.082       .  S
C443        C452   1.357       .  A
C443        C444   1.378       .  A
C444        C445   1.405       .  A
C444        O450   1.320       .  A
C445        C446   1.405       .  A
C445        H454   1.082       .  S
C446        C449   1.361       .  A
O447        C448   1.330       .  A
C448        C449   1.395       .  A
C449        H455   1.081       .  S
O450        C451   1.333       .  A
C451        C452   1.392       .  A
C452        H456   1.079       .  S
C457        C462   1.378       .  A
C457        C458   1.406       .  A
C457        O463   1.320       .  A
C458        C459   1.405       .  A
C458        H469   1.082       .  S
C459        C468   1.363       .  A
C459        C460   1.379       .  A
C460        C461   1.400       .  A
C460        O466   1.316       .  A
C461        C462   1.400       .  A
C461        H470   1.082       .  S
C462        C465   1.356       .  A
O463        C464   1.334       .  A
C464        C465   1.393       .  A
C465        H471   1.078       .  S
O466        C467   1.329       .  A
C467        C468   1.394       .  A
C468        H472   1.082       .  S
C473        C478   1.378       .  A
C473        C474   1.404       .  A
C473        O479   1.319       .  A
C474        C475   1.403       .  A
C474        H485   1.082       .  S
C475        C484   1.361       .  A
C475        C476   1.379       .  A
C476        C477   1.401       .  A
C476        O482   1.317       .  A
C477        C478   1.401       .  A
C477        H486   1.082       .  S
C478        C481   1.357       .  A
O479        C480   1.332       .  A
C480        C481   1.393       .  A
C481        H487   1.079       .  S
O482        C483   1.331       .  A
C483        C484   1.394       .  A
C484        H488   1.081       .  S
C489        C494   1.378       .  A
C489        C490   1.406       .  A
C489        O495   1.320       .  A
C490        C491   1.405       .  A
C490        H501   1.082       .  S
C491        C500   1.365       .  A
C491        C492   1.379       .  A
C492        C493   1.400       .  A
C492        O498   1.315       .  A
C493        C494   1.399       .  A
C493        H502   1.082       .  S
C494        C497   1.357       .  A
O495        C496   1.333       .  A
C496        C497   1.392       .  A
C497        H503   1.080       .  S
O498        C499   1.330       .  A
C499        C500   1.395       .  A
C500        H504   1.082       .  S
C505        C507   1.538       .  S
C505        C509   1.542       .  S
C505        C508   1.551       .  S
C505        C748   1.509       .  S
C506        C510   1.524   1_556  S
C506        C512   1.532   1_556  S
C506        C511   1.532   1_556  S
C506        C735   1.509       .  S
C507        C515   1.383       .  A
C507        C510   1.391       .  A
C508        C519   1.389       .  A
C508        C511   1.397       .  A
C509        C523   1.385       .  A
C509        C512   1.395       .  A
C510        C513   1.369   1_554  A
C511        C517   1.372   1_554  A
C512        C520   1.371   1_554  A
C513        N514   1.354   1_556  A
C513        H526   1.083       .  S
N514        C515   1.360       .  A
N514        C606   1.427       .  S
C515        H516   1.082       .  S
C517        N518   1.352   1_556  A
C517        H527   1.082       .  S
N518        C519   1.358       .  A
N518        C614   1.428       .  S
C519        H525   1.081       .  S
C520        N521   1.354   1_556  A
C520        H522   1.082       .  S
N521        C523   1.358       .  A
N521        C640   1.427       .  S
C523        H524   1.082       .  S
C528        C530   1.526       .  S
C528        C532   1.533       .  S
C528        C531   1.533       .  S
C528        C751   1.513       .  S
C529        C533   1.537       .  S
C529        C535   1.549       .  S
C529        C534   1.542       .  S
C529        C732   1.511       .  S
C530        C538   1.370       .  A
C530        C533   1.392       .  A
C531        C542   1.371       .  A
C531        C534   1.397       .  A
C532        C546   1.375       .  A
C532        C535   1.396       .  A
C533        C536   1.383       .  A
C534        C540   1.384       .  A
C535        C543   1.388       .  A
C536        N537   1.358       .  A
C536        H549   1.082       .  S
N537        C538   1.355       .  A
N537        C686   1.426       .  S
C538        H539   1.083       .  S
C540        N541   1.358       .  A
C540        H550   1.082       .  S
N541        C542   1.354       .  A
N541        C650   1.427       .  S
C542        H548   1.082       .  S
C543        N544   1.356       .  A
C543        H545   1.079       .  S
N544        C546   1.351       .  A
N544        C661   1.427       .  S
C546        H547   1.081       .  S
C551        C553   1.531   1_554  S
C551        C555   1.527   1_554  S
C551        C554   1.532   1_554  S
C551        C719   1.511       .  S
C552        C556   1.550       .  S
C552        C558   1.542       .  S
C552        C557   1.537       .  S
C552        C703   1.509       .  S
C553        C561   1.372   1_556  A
C553        C556   1.397       .  A
C554        C565   1.372   1_556  A
C554        C557   1.393       .  A
C555        C569   1.369   1_556  A
C555        C558   1.394       .  A
C556        C559   1.388       .  A
C557        C563   1.383       .  A
C558        C566   1.385       .  A
C559        N560   1.358       .  A
C559        H572   1.081       .  S
N560        C561   1.353   1_556  A
N560        C638   1.428       .  S
C561        H562   1.082       .  S
C563        N564   1.358       .  A
C563        H573   1.082       .  S
N564        C565   1.353   1_556  A
N564        C602   1.425       .  S
C565        H571   1.082       .  S
C566        N567   1.359       .  A
C566        H568   1.082       .  S
N567        C569   1.354   1_556  A
N567        C613   1.427       .  S
C569        H570   1.083       .  S
C574        C576   1.546       .  S
C574        C578   1.551       .  S
C574        C577   1.541       .  S
C574        C716   1.511       .  S
C575        C579   1.532       .  S
C575        C581   1.523       .  S
C575        C580   1.529       .  S
C575        C700   1.510       .  S
C576        C584   1.388       .  A
C576        C579   1.396       .  A
C577        C588   1.385       .  A
C577        C580   1.394       .  A
C578        C592   1.389       .  A
C578        C581   1.394       .  A
C579        C582   1.372       .  A
C580        C586   1.369       .  A
C581        C589   1.369       .  A
C582        N583   1.354       .  A
C582        H595   1.082       .  S
N583        C584   1.361       .  A
N583        C654   1.431       .  S
C584        H585   1.082       .  S
C586        N587   1.352       .  A
C586        H596   1.081       .  S
N587        C588   1.359       .  A
N587        C662   1.426       .  S
C588        H594   1.082       .  S
C589        N590   1.351       .  A
C589        H591   1.083       .  S
N590        C592   1.358       .  A
N590        C688   1.427       .  S
C592        H593   1.080       .  S
O597       Mg599   2.145       .  S
O597       Mg857   2.172   1_554  S
O597        C884   1.235       .  S
C598        H637   1.081       .  S
C598        O611   1.235       .  S
C598        O635   1.269       .  A
Mg599       O643   2.307   1_554  S
O600       Mg625   2.136       .  S
O601        C632   1.269   1_545  A
O601       Mg625   2.292       .  S
C602        O604   1.271       .  A
C602        O616   1.274       .  A
O603        C631   1.267       .  A
O603       Mg857   2.289       .  S
O604       Mg636   2.262       .  S
Mg605       O849   2.172   1_546  S
Mg605       O611   2.148       .  S
Mg605       O855   2.289   1_545  S
Mg605       O871   2.271   1_545  S
Mg605       O607   2.301   1_556  S
C606        O644   1.272       .  A
C606        O612   1.274       .  A
O607        C614   1.275       .  A
C609        H886   1.081       .  S
C609        O875   1.235       .  S
C609        O624   1.268       .  A
O610        C633   1.269       .  A
O611       Mg625   2.169   1_556  S
O612       Mg642   2.298   1_554  S
C613        O626   1.272       .  A
C613        O618   1.275       .  A
C614        O641   1.271       .  A
Mg615       O622   2.146       .  S
Mg615       O875   2.170   1_554  S
Mg615       O616   2.293   1_554  S
Mg615       O869   2.290       .  S
Mg615       O896   2.270       .  S
O617        C621   1.268       .  A
O617       Mg867   2.290   1_545  S
O618       Mg625   2.300   1_556  S
O619        C638   1.273       .  A
O619       Mg857   2.272       .  S
O620        C640   1.274       .  A
O620       Mg636   2.294   1_554  S
O622       Mg636   2.169   1_554  S
O622        C633   1.235       .  S
O623       Mg867   2.170   1_546  S
O623       Mg642   2.138       .  S
O623        C861   1.236       .  S
O624       Mg636   2.288       .  S
Mg625       O641   2.268       .  S
H627        C884   1.081       .  S
O628       Mg636   2.135       .  S
H630        C633   1.081       .  S
C632        H879   1.081       .  S
C632        O849   1.235       .  S
H634        C861   1.081       .  S
C638        O643   1.276       .  A
O639        C640   1.273       .  A
O644       Mg867   2.270   1_545  S
O645       Mg647   2.133       .  S
C646        H685   1.081       .  S
C646        O659   1.235       .  S
C646        O683   1.268       .  A
Mg647       O928   2.172   1_545  S
Mg647       O691   2.298       .  S
Mg647       O939   2.262   1_545  S
Mg647       O910   2.291   1_545  S
O648       Mg942   2.169   1_545  S
O648       Mg673   2.144       .  S
O648        C921   1.235       .  S
O649        C680   1.268       .  A
O649       Mg673   2.290       .  S
C650        O652   1.272       .  A
C650        O664   1.275       .  A
O651        C679   1.269   1_545  A
O652       Mg684   2.269       .  S
Mg653       O659   2.141       .  S
Mg653       O655   2.286       .  S
C654        O692   1.274       .  A
C654        O660   1.276       .  A
O655        C662   1.273       .  A
H656        C921   1.081       .  S
C657        O672   1.270   1_455  A
O658        C681   1.268       .  A
O658       Mg899   2.291       .  S
O659       Mg673   2.174       .  S
O660       Mg690   2.309       .  S
C661        O674   1.272       .  A
C661        O666   1.274       .  A
C662        O689   1.273       .  A
Mg663       O670   2.150       .  S
Mg663       O664   2.300       .  S
O665        C669   1.268       .  A
O666       Mg673   2.300       .  S
O667        C686   1.271       .  A
O668        C688   1.275       .  A
O668       Mg684   2.302       .  S
C669        H908   1.081       .  S
C669        O900   1.235       .  S
O670       Mg684   2.168       .  S
O670        C681   1.235       .  S
O671       Mg690   2.145       .  S
O672       Mg684   2.297       .  S
Mg673       O689   2.274       .  S
O674       Mg942   2.267   1_545  S
O676       Mg899   2.173       .  S
O676       Mg684   2.142       .  S
O676        C931   1.235       .  S
H677        C931   1.081       .  S
H678        C681   1.081       .  S
C679        H929   1.081       .  S
C679        O928   1.235       .  S
O683       Mg942   2.290   1_545  S
C686        O691   1.274       .  A
O687        C688   1.271       .  A
O687       Mg899   2.263       .  S
Mg690       O900   2.168       .  S
Mg690       O926   2.268       .  S
Mg690       O935   2.290       .  S
C693        C698   1.379       .  A
C693        C694   1.402       .  A
C693        O699   1.317       .  A
C694        C695   1.401       .  A
C694        H705   1.082       .  S
C695        C704   1.358       .  A
C695        C696   1.379       .  A
C696        C697   1.404       .  A
C696        O702   1.319       .  A
C697        C698   1.404       .  A
C697        H706   1.082       .  S
C698        C701   1.360       .  A
O699        C700   1.331       .  A
C700        C701   1.395       .  A
C701        H707   1.081       .  S
O702        C703   1.332       .  A
C703        C704   1.392       .  A
C704        H708   1.080       .  S
C709        C714   1.378       .  A
C709        C710   1.406       .  A
C709        O715   1.320       .  A
C710        C711   1.405       .  A
C710        H721   1.082       .  S
C711        C720   1.363       .  A
C711        C712   1.379       .  A
C712        C713   1.400       .  A
C712        O718   1.316       .  A
C713        C714   1.400       .  A
C713        H722   1.082       .  S
C714        C717   1.356       .  A
O715        C716   1.334       .  A
C716        C717   1.393       .  A
C717        H723   1.078       .  S
O718        C719   1.329       .  A
C719        C720   1.395       .  A
C720        H724   1.082       .  S
C725        C730   1.378       .  A
C725        C726   1.405       .  A
C725        O731   1.320       .  A
C726        C727   1.404       .  A
C726        H737   1.082       .  S
C727        C736   1.361       .  A
C727        C728   1.379       .  A
C728        C729   1.400       .  A
C728        O734   1.316       .  A
C729        C730   1.400       .  A
C729        H738   1.082       .  S
C730        C733   1.356       .  A
O731        C732   1.333       .  A
C732        C733   1.393       .  A
C733        H739   1.078       .  S
O734        C735   1.330       .  A
C735        C736   1.394       .  A
C736        H740   1.082       .  S
C741        C746   1.378       .  A
C741        C742   1.407       .  A
C741        O747   1.320       .  A
C742        C743   1.406       .  A
C742        H753   1.082       .  S
C743        C752   1.365       .  A
C743        C744   1.379       .  A
C744        C745   1.400       .  A
C744        O750   1.314       .  A
C745        C746   1.399       .  A
C745        H754   1.082       .  S
C746        C749   1.357       .  A
O747        C748   1.334       .  A
C748        C749   1.391       .  A
C749        H755   1.080       .  S
O750        C751   1.330       .  A
C751        C752   1.395       .  A
C752        H756   1.081       .  S
C757        C759   1.538       .  S
C757        C761   1.542       .  S
C757        C760   1.551       .  S
C757       C1000   1.509       .  S
C758        C762   1.524   1_556  S
C758        C764   1.533   1_556  S
C758        C763   1.531   1_556  S
C758        C987   1.510       .  S
C759        C767   1.383       .  A
C759        C762   1.391       .  A
C760        C771   1.388       .  A
C760        C763   1.397       .  A
C761        C775   1.385       .  A
C761        C764   1.395       .  A
C762        C765   1.369   1_554  A
C763        C769   1.372   1_554  A
C764        C772   1.371   1_554  A
C765        N766   1.354   1_556  A
C765        H778   1.083       .  S
N766        C767   1.359       .  A
N766        C858   1.427       .  S
C767        H768   1.082       .  S
C769        N770   1.352   1_556  A
C769        H779   1.082       .  S
N770        C771   1.358       .  A
N770        C866   1.427       .  S
C771        H777   1.081       .  S
C772        N773   1.353   1_556  A
C772        H774   1.082       .  S
N773        C775   1.358       .  A
N773        C892   1.427       .  S
C775        H776   1.082       .  S
C780        C782   1.526       .  S
C780        C784   1.533       .  S
C780        C783   1.533       .  S
C780       C1003   1.512       .  S
C781        C785   1.537       .  S
C781        C787   1.548       .  S
C781        C786   1.542       .  S
C781        C984   1.510       .  S
C782        C790   1.370       .  A
C782        C785   1.392       .  A
C783        C794   1.371       .  A
C783        C786   1.397       .  A
C784        C798   1.374       .  A
C784        C787   1.396       .  A
C785        C788   1.383       .  A
C786        C792   1.384       .  A
C787        C795   1.387       .  A
C788        N789   1.358       .  A
C788        H801   1.082       .  S
N789        C790   1.355       .  A
N789        C938   1.427       .  S
C790        H791   1.083       .  S
C792        N793   1.358       .  A
C792        H802   1.082       .  S
N793        C794   1.354       .  A
N793        C902   1.427       .  S
C794        H800   1.082       .  S
C795        N796   1.356       .  A
C795        H797   1.080       .  S
N796        C798   1.351       .  A
N796        C913   1.427       .  S
C798        H799   1.081       .  S
C803        C805   1.530   1_554  S
C803        C807   1.526   1_554  S
C803        C806   1.531   1_554  S
C803        C971   1.511       .  S
C804        C808   1.551       .  S
C804        C810   1.542       .  S
C804        C809   1.538       .  S
C804        C955   1.510       .  S
C805        C813   1.372   1_556  A
C805        C808   1.397       .  A
C806        C817   1.372   1_556  A
C806        C809   1.394       .  A
C807        C821   1.369   1_556  A
C807        C810   1.394       .  A
C808        C811   1.388       .  A
C809        C815   1.383       .  A
C810        C818   1.385       .  A
C811        N812   1.357       .  A
C811        H824   1.080       .  S
N812        C813   1.352   1_556  A
N812        C890   1.428       .  S
C813        H814   1.082       .  S
C815        N816   1.358       .  A
C815        H825   1.082       .  S
N816        C817   1.353   1_556  A
N816        C854   1.425       .  S
C817        H823   1.082       .  S
C818        N819   1.359       .  A
C818        H820   1.082       .  S
N819        C821   1.354   1_556  A
N819        C865   1.427       .  S
C821        H822   1.083       .  S
C826        C828   1.546       .  S
C826        C830   1.551       .  S
C826        C829   1.541       .  S
C826        C968   1.511       .  S
C827        C831   1.533       .  S
C827        C833   1.522       .  S
C827        C832   1.528       .  S
C827        C952   1.510       .  S
C828        C836   1.388       .  A
C828        C831   1.396       .  A
C829        C840   1.385       .  A
C829        C832   1.394       .  A
C830        C844   1.389       .  A
C830        C833   1.394       .  A
C831        C834   1.373       .  A
C832        C838   1.369       .  A
C833        C841   1.369       .  A
C834        N835   1.354       .  A
C834        H847   1.082       .  S
N835        C836   1.361       .  A
N835        C906   1.431       .  S
C836        H837   1.082       .  S
C838        N839   1.353       .  A
C838        H848   1.082       .  S
N839        C840   1.359       .  A
N839        C914   1.426       .  S
C840        H846   1.082       .  S
C841        N842   1.351       .  A
C841        H843   1.083       .  S
N842        C844   1.358       .  A
N842        C940   1.427       .  S
C844        H845   1.080       .  S
O849       Mg851   2.145       .  S
C850        H889   1.081       .  S
C850        O863   1.235       .  S
C850        O887   1.269       .  A
Mg851       O895   2.307   1_554  S
O852       Mg877   2.135       .  S
O853        C884   1.269       .  A
O853       Mg877   2.292       .  S
C854        O856   1.271       .  A
C854        O868   1.274       .  A
O855        C883   1.267       .  A
O856       Mg888   2.262       .  S
Mg857       O863   2.148       .  S
Mg857       O859   2.300   1_556  S
C858        O896   1.272       .  A
C858        O864   1.274       .  A
O859        C866   1.275       .  A
C861        O876   1.269   1_545  A
O862        C885   1.269       .  A
O863       Mg877   2.169   1_556  S
O864       Mg894   2.297   1_554  S
C865        O878   1.271       .  A
C865        O870   1.275       .  A
C866        O893   1.271       .  A
Mg867       O874   2.146       .  S
Mg867       O868   2.293   1_554  S
O869        C873   1.268   1_655  A
O870       Mg877   2.301   1_556  S
O871        C890   1.273       .  A
O872        C892   1.274       .  A
O872       Mg888   2.295   1_554  S
O874       Mg888   2.168   1_554  S
O874        C885   1.235       .  S
O875       Mg894   2.136       .  S
O876       Mg888   2.289       .  S
Mg877       O893   2.267       .  S
O880       Mg888   2.134       .  S
H882        C885   1.081       .  S
C890        O895   1.276       .  A
O891        C892   1.273       .  A
O897       Mg899   2.133       .  S
C898        H937   1.081       .  S
C898        O911   1.235       .  S
C898        O935   1.268       .  A
Mg899       O943   2.298       .  S
O900       Mg925   2.143       .  S
O901        C932   1.268       .  A
O901       Mg925   2.290       .  S
C902        O904   1.272       .  A
C902        O916   1.275       .  A
O903        C931   1.269       .  A
O904       Mg936   2.268       .  S
Mg905       O911   2.142       .  S
Mg905       O907   2.286       .  S
C906        O944   1.274       .  A
C906        O912   1.276       .  A
O907        C914   1.273       .  A
C909        O924   1.270   1_455  A
O910        C933   1.268       .  A
O911       Mg925   2.174       .  S
O912       Mg942   2.310       .  S
C913        O926   1.272       .  A
C913        O918   1.274       .  A
C914        O941   1.272       .  A
Mg915       O922   2.150       .  S
Mg915       O916   2.300       .  S
O917        C921   1.268   1_565  A
O918       Mg925   2.299       .  S
O919        C938   1.272       .  A
O920        C940   1.275       .  A
O920       Mg936   2.302       .  S
O922       Mg936   2.168       .  S
O922        C933   1.235       .  S
O923       Mg942   2.146       .  S
O924       Mg936   2.298       .  S
Mg925       O941   2.274       .  S
O928       Mg936   2.141       .  S
H930        C933   1.081       .  S
C938        O943   1.274       .  A
O939        C940   1.271       .  A
C945        C950   1.379       .  A
C945        C946   1.400       .  A
C945        O951   1.317       .  A
C946        C947   1.400       .  A
C946        H957   1.082       .  S
C947        C956   1.357       .  A
C947        C948   1.378       .  A
C948        C949   1.405       .  A
C948        O954   1.320       .  A
C949        C950   1.405       .  A
C949        H958   1.082       .  S
C950        C953   1.361       .  A
O951        C952   1.330       .  A
C952        C953   1.395       .  A
C953        H959   1.081       .  S
O954        C955   1.333       .  A
C955        C956   1.392       .  A
C956        H960   1.079       .  S
C961        C966   1.378       .  A
C961        C962   1.406       .  A
C961        O967   1.320       .  A
C962        C963   1.405       .  A
C962        H973   1.082       .  S
C963        C972   1.363       .  A
C963        C964   1.379       .  A
C964        C965   1.400       .  A
C964        O970   1.316       .  A
C965        C966   1.400       .  A
C965        H974   1.082       .  S
C966        C969   1.356       .  A
O967        C968   1.334       .  A
C968        C969   1.393       .  A
C969        H975   1.078       .  S
O970        C971   1.329       .  A
C971        C972   1.394       .  A
C972        H976   1.082       .  S
C977        C982   1.378       .  A
C977        C978   1.404       .  A
C977        O983   1.319       .  A
C978        C979   1.403       .  A
C978        H989   1.082       .  S
C979        C988   1.361       .  A
C979        C980   1.379       .  A
C980        C981   1.401       .  A
C980        O986   1.317       .  A
C981        C982   1.401       .  A
C981        H990   1.082       .  S
C982        C985   1.357       .  A
O983        C984   1.332       .  A
C984        C985   1.393       .  A
C985        H991   1.079       .  S
O986        C987   1.331       .  A
C987        C988   1.394       .  A
C988        H992   1.081       .  S
C993        C998   1.378       .  A
C993        C994   1.406       .  A
C993        O999   1.320       .  A
C994        C995   1.405       .  A
C994       H1005   1.082       .  S
C995       C1004   1.365       .  A
C995        C996   1.379       .  A
C996        C997   1.400       .  A
C996       O1002   1.315       .  A
C997        C998   1.399       .  A
C997       H1006   1.082       .  S
C998       C1001   1.357       .  A
O999       C1000   1.333       .  A
C1000      C1001   1.392       .  A
C1001      H1007   1.080       .  S
O1002      C1003   1.330       .  A
C1003      C1004   1.395       .  A
C1004      H1008   1.082       .  S
