geometry optimzed in LAMMPS
_audit_creation_date              2020-12-01 
_audit_creation_method            'lammps2cif' 
_symmetry_space_group_name_H-M    'P1' 
_symmetry_Int_Tables_number       1 
_symmetry_cell_setting            triclinic 
loop_ 
_symmetry_equiv_pos_as_xyz 
  x,y,z 
_cell_length_a                    72.57897894 
_cell_length_b                    72.0848217351848 
_cell_length_c                    72.34762229266966 
_cell_angle_alpha                 90.11250851999084 
_cell_angle_beta                  89.70196960416565 
_cell_angle_gamma                 90.31237837742056 
loop_ 
_atom_site_label 
_atom_site_type_symbol 
_atom_site_fract_x 
_atom_site_fract_y 
_atom_site_fract_z 
_atom_site_charge 
N1          N  0.79140516  0.20567206  0.43672982    -0.03100
C2          C  0.79881240  0.19315308  0.42433539    -0.00600
C3          C  0.81077714  0.18138145  0.43323737    -0.23400
C4          C  0.81131938  0.18665974  0.45127107    -0.23600
C5          C  0.79898951  0.20105460  0.45347345    -0.00700
H6          H  0.81809193  0.16974751  0.42721030     0.13100
H7          H  0.81890257  0.17972623  0.46211079     0.13200
N8          N  0.75093823  0.27415894  0.43225501    -0.03100
C9          C  0.74877011  0.28902245  0.42038711    -0.00600
C10         C  0.73781311  0.30241271  0.42849326    -0.23400
C11         C  0.73337412  0.29644843  0.44575588    -0.23600
C12         C  0.74138134  0.27931685  0.44790332    -0.00700
H13         H  0.73351797  0.31541360  0.42235175     0.13100
H14         H  0.72540507  0.30399440  0.45597129     0.13200
N15         N  0.73316213  0.26354540  0.54108404    -0.03100
C16         C  0.72058233  0.27145294  0.55307878    -0.00600
C17         C  0.70920186  0.28340407  0.54361931    -0.23400
C18         C  0.71491743  0.28363611  0.52573214    -0.23600
C19         C  0.72913574  0.27107964  0.52415685    -0.00700
H20         H  0.69771401  0.29117913  0.54925669     0.13100
H21         H  0.70855777  0.29132584  0.51461242     0.13200
N22         N  0.79981868  0.22070994  0.54608335    -0.03100
C23         C  0.81354981  0.21769945  0.55887012    -0.00600
C24         C  0.82662138  0.20577516  0.55171894    -0.23400
C25         C  0.82161091  0.20161941  0.53409637    -0.23600
C26         C  0.80528099  0.21067858  0.53080273    -0.00700
H27         H  0.83897393  0.20097787  0.55859711     0.13100
H28         H  0.82933611  0.19316949  0.52439773     0.13200
N29         N  0.73017115  0.21122217  0.93288701    -0.03100
C30         C  0.71749286  0.20830283  0.91910241    -0.00600
C31         C  0.70397093  0.19613742  0.92514682    -0.23400
C32         C  0.70791404  0.19163208  0.94304806    -0.23600
C33         C  0.72388894  0.20095593  0.94766280    -0.00700
H34         H  0.69179668  0.19187471  0.91758733     0.13100
H35         H  0.69932826  0.18339973  0.95222521     0.13200
N36         N  0.80338980  0.23967583  0.94200370    -0.03100
C37         C  0.81963354  0.23570310  0.93296243    -0.00600
C38         C  0.83400012  0.23554980  0.94539442    -0.23400
C39         C  0.82671613  0.23961480  0.96244931    -0.23600
C40         C  0.80806886  0.24273312  0.96010511    -0.00700
H41         H  0.84848828  0.23405652  0.94215640     0.13100
H42         H  0.83452983  0.24187133  0.97495318     0.13200
N43         N  0.73612991  0.20428522  0.04278202    -0.03100
C44         C  0.72942176  0.19315523  0.05687815    -0.00600
C45         C  0.71652018  0.18078035  0.05012244    -0.23400
C46         C  0.71500064  0.18391441  0.03161997    -0.23600
C47         C  0.72704851  0.19813100  0.02725178    -0.00700
H48         H  0.70965216  0.16980894  0.05780126     0.13100
H49         H  0.70668283  0.17595684  0.02203478     0.13200
N50         N  0.76458989  0.27883751  0.03542238    -0.03100
C51         C  0.76089521  0.29523442  0.04461790    -0.00600
C52         C  0.76158548  0.30997393  0.03245660    -0.23400
C53         C  0.76578728  0.30299097  0.01543188    -0.23600
C54         C  0.76836004  0.28415647  0.01754089    -0.00700
H55         H  0.76041554  0.32454379  0.03586172     0.13100
H56         H  0.76839776  0.31105048  0.00311455     0.13200
N57         N  0.80902387  0.93488648  0.26475489    -0.03100
C58         C  0.82370712  0.92299603  0.26669129    -0.00600
C59         C  0.83827000  0.93189194  0.27522749    -0.23400
C60         C  0.83312586  0.94972496  0.27830498    -0.23600
C61         C  0.81524595  0.95134918  0.27222679    -0.00700
H62         H  0.85141443  0.92587051  0.27890674     0.13100
H63         H  0.84138057  0.96039018  0.28494003     0.13200
N64         N  0.73930320  0.93744792  0.22772670    -0.03100
C65         C  0.72436430  0.92599067  0.22455224    -0.00600
C66         C  0.71065671  0.93566184  0.21562517    -0.23400
C67         C  0.71709848  0.95316247  0.21258422    -0.23600
C68         C  0.73447549  0.95424740  0.22018078    -0.00700
H69         H  0.69741531  0.93027423  0.21126297     0.13100
H70         H  0.70985468  0.96407455  0.20541235     0.13200
N71         N  0.79318099  0.04218401  0.27724845    -0.03100
C72         C  0.80117054  0.05627996  0.28718337    -0.00600
C73         C  0.81379564  0.04947172  0.29951283    -0.23400
C74         C  0.81322808  0.03068019  0.29799017    -0.23600
C75         C  0.79990603  0.02617796  0.28500221    -0.00700
H76         H  0.82155461  0.05734390  0.30961793     0.13100
H77         H  0.82130855  0.02119499  0.30617017     0.13200
N78         N  0.76669909  0.04209024  0.20265743    -0.03100
C79         C  0.76687075  0.05365274  0.18758327    -0.00600
C80         C  0.76409831  0.04354840  0.17156343    -0.23400
C81         C  0.76160345  0.02546439  0.17658421    -0.23600
C82         C  0.76329313  0.02471817  0.19555046    -0.00700
H83         H  0.76248497  0.04907616  0.15776156     0.13100
H84         H  0.75800653  0.01411228  0.16742920     0.13200
O85         O  0.77738199  0.31661330  0.13265055    -0.71400
O86         O  0.77508900  0.31459484  0.18510870    -0.71700
O87         O  0.77396577  0.28950769  0.15775716    -0.71500
O88         O  0.77833355  0.34216542  0.16085760    -0.71500
O89         O  0.74861240  0.34452553  0.15928790    -0.71500
O90         O  0.74413857  0.29194759  0.15735324    -0.71500
O91         O  0.74536523  0.31737407  0.18413205    -0.71500
O92         O  0.74771253  0.31815571  0.13156994    -0.71600
V93         V  0.77563172  0.31584998  0.15894484     1.35200
V94         V  0.74704862  0.31809714  0.15795231     1.35200
C95         C  0.76289524  0.31634408  0.12301499     0.77800
C96         C  0.75986017  0.31557409  0.19357166     0.77800
C97         C  0.75825379  0.28181226  0.15768765     0.77700
C98         C  0.76410226  0.35222173  0.16197653     0.77700
O99         O  0.74186383  0.31226824  0.33469058    -0.71400
O100        O  0.74305130  0.31181475  0.28230921    -0.71700
O101        O  0.74642329  0.28646784  0.30892021    -0.71500
O102        O  0.73890185  0.33855683  0.30736849    -0.71500
O103        O  0.76850406  0.34310021  0.30793722    -0.71500
O104        O  0.77600740  0.29110442  0.30930985    -0.71500
O105        O  0.77263290  0.31647714  0.28262106    -0.71500
O106        O  0.77146207  0.31640803  0.33552902    -0.71600
V107        V  0.74313170  0.31251604  0.30844678     1.35200
V108        V  0.77156952  0.31686054  0.30896160     1.35200
C109        C  0.75658799  0.31228909  0.34394882     0.77800
C110        C  0.75795910  0.31393855  0.27352100     0.77800
C111        C  0.76255427  0.27998005  0.30946047     0.77700
C112        C  0.75249493  0.34954835  0.30577108     0.77700
O113        O  0.77202929  0.14098935  0.16222318    -0.71400
O114        O  0.77098873  0.19366871  0.16299230    -0.71700
O115        O  0.77645757  0.16694132  0.18814038    -0.71500
O116        O  0.76629297  0.16872641  0.13661880    -0.71500
O117        O  0.73726107  0.16506997  0.14266550    -0.71500
O118        O  0.74707392  0.16845232  0.19397092    -0.71500
O119        O  0.74126282  0.19285069  0.16665218    -0.71500
O120        O  0.74352802  0.14025143  0.17089823    -0.71600
V121        V  0.77090341  0.16741718  0.16253215     1.35200
V122        V  0.74278770  0.16655947  0.16830792     1.35200
C123        C  0.75854741  0.13168503  0.16850792     0.77800
C124        C  0.75587932  0.20218955  0.16423458     0.77800
C125        C  0.76341114  0.16774282  0.19975517     0.77700
C126        C  0.74980124  0.16881890  0.13100458     0.77700
O127        O  0.77151785  0.13821356  0.31378082    -0.71400
O128        O  0.76261495  0.19008859  0.31529076    -0.71700
O129        O  0.76328496  0.16401070  0.28901857    -0.71500
O130        O  0.77110784  0.16531394  0.34107801    -0.71500
O131        O  0.80002624  0.16976376  0.33612585    -0.71500
O132        O  0.79235678  0.16983368  0.28450076    -0.71500
O133        O  0.79184329  0.19539626  0.31115237    -0.71500
O134        O  0.80051715  0.14357114  0.30866024    -0.71600
V135        V  0.76770140  0.16436274  0.31485106     1.35200
V136        V  0.79564426  0.16943070  0.31035579     1.35200
C137        C  0.78722876  0.13215111  0.30913570     0.77800
C138        C  0.77568404  0.20151519  0.31313332     0.77800
C139        C  0.77652749  0.16698152  0.27796142     0.77700
C140        C  0.78684209  0.16928158  0.34756202     0.77700
N141        N  0.77042510  0.44112328  0.19834747    -0.03100
C142        C  0.77195907  0.43054705  0.18249354    -0.00600
C143        C  0.77941482  0.44119097  0.16842486    -0.23400
C144        C  0.78197282  0.45870360  0.17520415    -0.23600
C145        C  0.77699222  0.45841109  0.19364942    -0.00700
H146        H  0.78288327  0.43660573  0.15459779     0.13100
H147        H  0.78795906  0.47026181  0.16770278     0.13200
N148        N  0.72882345  0.43184226  0.26527963    -0.03100
C149        C  0.72251808  0.41583631  0.27342691    -0.00600
C150        C  0.70424787  0.41817996  0.27865735    -0.23400
C151        C  0.69970236  0.43631198  0.27520370    -0.23600
C152        C  0.71498178  0.44447597  0.26718163    -0.00700
H153        H  0.69581194  0.40838185  0.28624610     0.13100
H154        H  0.68719412  0.44317707  0.27950681     0.13200
N155        N  0.79340510  0.53765095  0.24418587    -0.03100
C156        C  0.80823439  0.54799060  0.25004365    -0.00600
C157        C  0.82292908  0.53655555  0.25373857    -0.23400
C158        C  0.81741350  0.51879292  0.24967026    -0.23600
C159        C  0.79968146  0.51973356  0.24269234    -0.00700
H160        H  0.83672020  0.54085535  0.25746909     0.13100
H161        H  0.82621742  0.50674932  0.24971024     0.13200
N162        N  0.71833334  0.54058216  0.26937255    -0.03100
C163        C  0.70646217  0.55431202  0.27495322    -0.00600
C164        C  0.69080903  0.54663537  0.28285509    -0.23400
C165        C  0.69247817  0.52784549  0.28177373    -0.23600
C166        C  0.70935775  0.52427098  0.27375810    -0.00700
H167        H  0.67888273  0.55406892  0.28795193     0.13100
H168        H  0.68230941  0.51769675  0.28624622     0.13200
O169        O  0.66925446  0.81207401  0.22621789    -0.71400
O170        O  0.72110125  0.81241627  0.23392868    -0.71700
O171        O  0.69421364  0.78704520  0.23601043    -0.71500
O172        O  0.69729294  0.83837876  0.22448940    -0.71500
O173        O  0.69148123  0.84512564  0.25291639    -0.71500
O174        O  0.69095494  0.79394442  0.26503516    -0.71500
O175        O  0.71688403  0.82017944  0.26266994    -0.71500
O176        O  0.66461847  0.81776215  0.25529644    -0.71600
V177        V  0.69519602  0.81274101  0.23066621     1.35200
V178        V  0.69090721  0.81928457  0.25838602     1.35200
C179        C  0.65810168  0.81300118  0.23972259     0.77800
C180        C  0.72781313  0.81617042  0.24956822     0.77800
C181        C  0.69280041  0.78178189  0.25261157     0.77700
C182        C  0.69674054  0.85055564  0.23711835     0.77700
O183        O  0.85914958  0.65972168  0.22103476    -0.71400
O184        O  0.80881262  0.66251488  0.23504173    -0.71700
O185        O  0.83562757  0.68700528  0.22831726    -0.71500
O186        O  0.83112911  0.63431342  0.22805230    -0.71500
O187        O  0.84102829  0.63345206  0.25620111    -0.71500
O188        O  0.84153555  0.68619218  0.25773071    -0.71500
O189        O  0.81644310  0.65975740  0.26392197    -0.71500
O190        O  0.86692442  0.66133790  0.24975880    -0.71600
V191        V  0.83396508  0.66071305  0.22859979     1.35200
V192        V  0.84147572  0.65999886  0.25632686     1.35200
C193        C  0.87158971  0.66266626  0.23292004     0.77800
C194        C  0.80410451  0.66152379  0.25182443     0.77800
C195        C  0.83886579  0.69551027  0.24324923     0.77700
C196        C  0.83381637  0.62499553  0.24262496     0.77700
O197        O  0.68994877  0.64156260  0.25648575    -0.71400
O198        O  0.69174210  0.69390871  0.25388412    -0.71700
O199        O  0.71637370  0.66671393  0.25267102    -0.71500
O200        O  0.66451506  0.66977225  0.25799045    -0.71500
O201        O  0.66762552  0.67115827  0.28753678    -0.71500
O202        O  0.71948355  0.66788379  0.28250895    -0.71500
O203        O  0.69503085  0.69566181  0.28366849    -0.71500
O204        O  0.69257518  0.64289538  0.28625507    -0.71600
V205        V  0.69058490  0.66789613  0.25586537     1.35200
V206        V  0.69349407  0.66928735  0.28446513     1.35200
C207        C  0.69245691  0.63322875  0.27161409     0.77800
C208        C  0.69396926  0.70367582  0.26817684     0.77800
C209        C  0.72670772  0.66668527  0.26665394     0.77700
C210        C  0.65725331  0.67263748  0.27366221     0.77700
O211        O  0.86918750  0.80845796  0.26664348    -0.71400
O212        O  0.81645713  0.80799453  0.26777481    -0.71700
O213        O  0.84307123  0.78214774  0.26435970    -0.71500
O214        O  0.84192447  0.83450727  0.27023807    -0.71500
O215        O  0.84232499  0.83777125  0.24044179    -0.71500
O216        O  0.84160247  0.78541057  0.23453368    -0.71500
O217        O  0.81618559  0.81198127  0.23807892    -0.71500
O218        O  0.86861504  0.81055160  0.23692580    -0.71600
V219        V  0.84276298  0.80836006  0.26669665     1.35200
V220        V  0.84232475  0.81144389  0.23808443     1.35200
C221        C  0.87802598  0.80846378  0.25147541     0.77800
C222        C  0.80734718  0.81051314  0.25311393     0.77800
C223        C  0.84214411  0.77493080  0.24846307     0.77700
C224        C  0.84058187  0.84499047  0.25632051     0.77700
N225        N  0.46022485  0.75921960  0.21692814    -0.03100
C226        C  0.44723130  0.76636387  0.20499285    -0.00600
C227        C  0.45489213  0.78067553  0.19483817    -0.23400
C228        C  0.47271503  0.78274519  0.20041733    -0.23600
C229        C  0.47602168  0.76937743  0.21363946    -0.00700
H230        H  0.44827100  0.78847151  0.18398148     0.13100
H231        H  0.48274935  0.79218440  0.19443713     0.13200
N232        N  0.45919412  0.71643796  0.28390628    -0.03100
C233        C  0.44738076  0.71208893  0.29830627    -0.00600
C234        C  0.45625622  0.70116033  0.31110871    -0.23400
C235        C  0.47395516  0.69895159  0.30513085    -0.23600
C236        C  0.47561767  0.70826558  0.28856883    -0.00700
H237        H  0.45042667  0.69561603  0.32379223     0.13100
H238        H  0.48475453  0.69162017  0.31234127     0.13200
N239        N  0.56916445  0.71072967  0.27379060    -0.03100
C240        C  0.58218117  0.69997389  0.28250923    -0.00600
C241        C  0.57386903  0.68874651  0.29559441    -0.23400
C242        C  0.55554785  0.69246843  0.29540608    -0.23600
C243        C  0.55272803  0.70551548  0.28178557    -0.00700
H244        H  0.58047609  0.67829706  0.30398681     0.13100
H245        H  0.54506608  0.68542247  0.30350851     0.13200
N246        N  0.56923583  0.77707525  0.22933774    -0.03100
C247        C  0.58140943  0.79138499  0.22542990    -0.00600
C248        C  0.57326897  0.80384060  0.21351363    -0.23400
C249        C  0.55569210  0.79779053  0.21032235    -0.23600
C250        C  0.55336198  0.78144157  0.21995356    -0.00700
H251        H  0.57942442  0.81638302  0.20799608     0.13100
H252        H  0.54547827  0.80479793  0.20211072     0.13200
N253        N  0.95820562  0.70110800  0.21364119    -0.03100
C254        C  0.94547148  0.68715260  0.21043368    -0.00600
C255        C  0.95286797  0.67379911  0.19893243    -0.23400
C256        C  0.97031794  0.67930144  0.19453784    -0.23600
C257        C  0.97352779  0.69583292  0.20363630    -0.00700
H258        H  0.94610765  0.66115595  0.19424912     0.13100
H259        H  0.97995568  0.67183648  0.18578502     0.13200
N260        N  0.96599547  0.77306812  0.24705827    -0.03100
C261        C  0.95687786  0.78971943  0.24507654    -0.00600
C262        C  0.96912017  0.80433828  0.24688879    -0.23400
C263        C  0.98609302  0.79697342  0.25022432    -0.23600
C264        C  0.98392979  0.77793351  0.25104773    -0.00700
H265        H  0.96581567  0.81895608  0.24706521     0.13100
H266        H  0.99847426  0.80476455  0.25317865     0.13200
N267        N  0.06394202  0.72536467  0.19469379    -0.03100
C268        C  0.07640111  0.72761928  0.18044191    -0.00600
C269        C  0.06758196  0.72710695  0.16360211    -0.23400
C270        C  0.04950945  0.72351112  0.16703756    -0.23600
C271        C  0.04727336  0.72271026  0.18599095    -0.00700
H272        H  0.07403872  0.72770735  0.15003059     0.13100
H273        H  0.03901484  0.72110768  0.15665740     0.13200
N274        N  0.06207986  0.73162919  0.27406430    -0.03100
C275        C  0.07192149  0.72456398  0.28879557    -0.00600
C276        C  0.06031000  0.72151914  0.30370831    -0.23400
C277        C  0.04308815  0.72688873  0.29865275    -0.23600
C278        C  0.04442914  0.73364020  0.28087766    -0.00700
H279        H  0.06427309  0.71726922  0.31744051     0.13100
H280        H  0.03110425  0.72735306  0.30759096     0.13200
N281        N  0.28727684  0.78583374  0.94093838    -0.03100
C282        C  0.28913266  0.80039413  0.92857117    -0.00600
C283        C  0.29567703  0.81584902  0.93790498    -0.23400
C284        C  0.29882215  0.81086077  0.95581029    -0.23600
C285        C  0.29349562  0.79256764  0.95769680    -0.00700
H286        H  0.29861582  0.82934714  0.93202132     0.13100
H287        H  0.30455918  0.81972396  0.96645616     0.13200
N288        N  0.26043064  0.71075285  0.94210624    -0.03100
C289        C  0.26183076  0.69542009  0.93071615    -0.00600
C290        C  0.25857902  0.67938200  0.94066335    -0.23400
C291        C  0.25570417  0.68434392  0.95851897    -0.23600
C292        C  0.25587221  0.70346340  0.95918189    -0.00700
H293        H  0.25790287  0.66536901  0.93532862     0.13100
H294        H  0.25218560  0.67495509  0.96967086     0.13200
N295        N  0.30639729  0.75982070  0.04753857    -0.03100
C296        C  0.32037110  0.76037469  0.06041403    -0.00600
C297        C  0.33625548  0.76736561  0.05236079    -0.23400
C298        C  0.33219694  0.77190069  0.03453463    -0.23600
C299        C  0.31400979  0.76711739  0.03157568    -0.00700
H300        H  0.34936224  0.76966983  0.05910300     0.13100
H301        H  0.34156971  0.77820331  0.02466316     0.13200
N302        N  0.23084828  0.73594600  0.04424594    -0.03100
C303        C  0.21549410  0.73771631  0.05548689    -0.00600
C304        C  0.19977411  0.73842542  0.04484168    -0.23400
C305        C  0.20511192  0.73758155  0.02680264    -0.23600
C306        C  0.22396831  0.73516047  0.02655842    -0.00700
H307        H  0.18566707  0.73873953  0.04975580     0.13100
H308        H  0.19594432  0.73686270  0.01507502     0.13200
O309        O  0.16420340  0.71016769  0.16641040    -0.71400
O310        O  0.21652221  0.70713947  0.16821006    -0.71700
O311        O  0.18904297  0.70572328  0.19298145    -0.71500
O312        O  0.19214577  0.71152003  0.14057879    -0.71500
O313        O  0.19548859  0.74108349  0.14424290    -0.71500
O314        O  0.18884814  0.73571850  0.19602231    -0.71500
O315        O  0.21776221  0.73682739  0.17287588    -0.71500
O316        O  0.16587246  0.73997985  0.16772695    -0.71600
V317        V  0.19042970  0.70918500  0.16694309     1.35200
V318        V  0.19190422  0.73783332  0.17006754     1.35200
C319        C  0.15591939  0.72553483  0.16777064     0.77800
C320        C  0.22602689  0.72149951  0.17155488     0.77800
C321        C  0.18820116  0.71982439  0.20334442     0.77700
C322        C  0.19555293  0.72724987  0.13346757     0.77700
O323        O  0.34234495  0.73046769  0.14433537    -0.71400
O324        O  0.34245304  0.71890757  0.19591888    -0.71700
O325        O  0.31725381  0.71800730  0.16916995    -0.71500
O326        O  0.36822378  0.73139871  0.17259532    -0.71500
O327        O  0.36049620  0.75986493  0.17675311    -0.71500
O328        O  0.31008157  0.74613984  0.17674858    -0.71500
O329        O  0.33663836  0.74780276  0.20212756    -0.71500
O330        O  0.33303110  0.75809589  0.15080705    -0.71600
V331        V  0.34255242  0.72524684  0.17039746     1.35200
V332        V  0.33531988  0.75246004  0.17636823     1.35200
C333        C  0.33611351  0.74586039  0.13864857     0.77800
C334        C  0.33961414  0.73150868  0.20774395     0.77800
C335        C  0.30498782  0.72971901  0.17340279     0.77700
C336        C  0.37306438  0.74779781  0.17686198     0.77700
O337        O  0.15866085  0.74268724  0.31272072    -0.71400
O338        O  0.21107735  0.74241471  0.31615017    -0.71700
O339        O  0.18623836  0.73862726  0.28902088    -0.71500
O340        O  0.18403116  0.74695926  0.34070144    -0.71500
O341        O  0.18449164  0.71725976  0.34555410    -0.71500
O342        O  0.18443434  0.70886339  0.29349879    -0.71500
O343        O  0.21039678  0.71256831  0.31950114    -0.71500
O344        O  0.15791671  0.71347355  0.31867001    -0.71600
V345        V  0.18489258  0.74211813  0.31486505     1.35200
V346        V  0.18422617  0.71361070  0.31935042     1.35200
C347        C  0.14931428  0.72781488  0.31358787     0.77800
C348        C  0.21974456  0.72735922  0.31809019     0.77800
C349        C  0.18541619  0.72241528  0.28247927     0.77700
C350        C  0.18543655  0.73362141  0.35192294     0.77700
O351        O  0.33486166  0.73935574  0.34802172    -0.71400
O352        O  0.33641808  0.73851828  0.29560317    -0.71700
O353        O  0.30977869  0.74022497  0.32124088    -0.71500
O354        O  0.36237484  0.73717153  0.32127301    -0.71500
O355        O  0.36032549  0.70715202  0.32177737    -0.71500
O356        O  0.30803226  0.71019036  0.32124067    -0.71500
O357        O  0.33477266  0.70843588  0.29564631    -0.71500
O358        O  0.33285249  0.70929702  0.34833804    -0.71600
V359        V  0.33595201  0.73822634  0.32168363     1.35200
V360        V  0.33414516  0.70934890  0.32191536     1.35200
C361        C  0.33178349  0.72459568  0.35696280     0.77800
C362        C  0.33606296  0.72344680  0.28671474     0.77800
C363        C  0.29994167  0.72565801  0.32100130     0.77700
C364        C  0.37020490  0.72153363  0.31969768     0.77700
N365        N  0.24261124  0.76519672  0.54284298    -0.03100
C366        C  0.23564089  0.77525853  0.55736923    -0.00600
C367        C  0.22350840  0.78845933  0.55126165    -0.23400
C368        C  0.22345410  0.78743361  0.53253296    -0.23600
C369        C  0.23586207  0.77377958  0.52731671    -0.00700
H370        H  0.21649838  0.79880102  0.55959467     0.13100
H371        H  0.21521588  0.79607638  0.52359827     0.13200
N372        N  0.26065860  0.68748444  0.54137191    -0.03100
C373        C  0.26013012  0.67357412  0.55438484    -0.00600
C374        C  0.26171732  0.65645417  0.54594911    -0.23400
C375        C  0.26385743  0.65950257  0.52748920    -0.23600
C376        C  0.26289143  0.67842384  0.52471609    -0.00700
H377        H  0.26230182  0.64309991  0.55275521     0.13100
H378        H  0.26611517  0.64893570  0.51706189     0.13200
N379        N  0.28202125  0.70702756  0.43595670    -0.03100
C380        C  0.29342706  0.70189109  0.42165531    -0.00600
C381        C  0.29939593  0.68387446  0.42460311    -0.23400
C382        C  0.29263839  0.67818020  0.44139643    -0.23600
C383        C  0.28210202  0.69252671  0.44813133    -0.00700
H384        H  0.30912127  0.67625509  0.41617049     0.13100
H385        H  0.29571193  0.66532980  0.44830123     0.13200
N386        N  0.21608095  0.74974417  0.43991226    -0.03100
C387        C  0.20062308  0.75149067  0.42912688    -0.00600
C388        C  0.18697484  0.76064313  0.43888417    -0.23400
C389        C  0.19365143  0.76404867  0.45621084    -0.23600
C390        C  0.21148459  0.75751796  0.45656146    -0.00700
H391        H  0.17358187  0.76460393  0.43387073     0.13100
H392        H  0.18651858  0.77127723  0.46720637     0.13200
O393        O  0.26479444  0.80517861  0.63804430    -0.71400
O394        O  0.27091079  0.81255087  0.68975839    -0.71700
O395        O  0.27110233  0.78340667  0.66673991    -0.71500
O396        O  0.26439020  0.83536947  0.66154271    -0.71500
O397        O  0.23532171  0.83192380  0.66664879    -0.71500
O398        O  0.24153309  0.77988600  0.67018343    -0.71500
O399        O  0.24151628  0.80839897  0.69401257    -0.71500
O400        O  0.23529302  0.80234261  0.64201997    -0.71600
V401        V  0.26720266  0.80920280  0.66399448     1.35200
V402        V  0.23893878  0.80584009  0.66799136     1.35200
C403        C  0.24921934  0.80086285  0.63146036     0.77800
C404        C  0.25733160  0.81127821  0.70069921     0.77800
C405        C  0.25737282  0.77282321  0.66907021     0.77700
C406        C  0.24899747  0.84277789  0.66508523     0.77700
O407        O  0.24370671  0.64403893  0.81910085    -0.71400
O408        O  0.24739579  0.69652703  0.81776516    -0.71700
O409        O  0.24502441  0.66904553  0.79257681    -0.71500
O410        O  0.24609475  0.67199198  0.84512450    -0.71500
O411        O  0.27594632  0.67141698  0.84428139    -0.71500
O412        O  0.27478331  0.66570298  0.79224661    -0.71500
O413        O  0.27720521  0.69438279  0.81586326    -0.71500
O414        O  0.27338232  0.64206231  0.82031446    -0.71600
V415        V  0.24609717  0.67028011  0.81877239     1.35200
V416        V  0.27474304  0.66833112  0.81826944     1.35200
C417        C  0.25796800  0.63405590  0.81834558     0.77800
C418        C  0.26296751  0.70436061  0.81658156     0.77800
C419        C  0.25976379  0.66653547  0.78357241     0.77700
C420        C  0.26130661  0.67394915  0.85345325     0.77700
O421        O  0.26411476  0.82230779  0.84272937    -0.71400
O422        O  0.25544602  0.81868970  0.79086499    -0.71700
O423        O  0.25654830  0.79477032  0.81902509    -0.71500
O424        O  0.26296664  0.84699594  0.81317719    -0.71500
O425        O  0.29226649  0.84305636  0.80895243    -0.71500
O426        O  0.28580009  0.79082759  0.81389762    -0.71500
O427        O  0.28476143  0.81518663  0.78610348    -0.71500
O428        O  0.29315549  0.81757397  0.83813589    -0.71600
V429        V  0.26038819  0.82076592  0.81654769     1.35200
V430        V  0.28848402  0.81692143  0.81203470     1.35200
C431        C  0.27975127  0.81849174  0.84945544     0.77800
C432        C  0.26863261  0.81627797  0.77966029     0.77800
C433        C  0.27003064  0.78394029  0.81685359     0.77700
C434        C  0.27837454  0.85360740  0.80798722     0.77700
O435        O  0.24677963  0.65727226  0.64303586    -0.71400
O436        O  0.24661901  0.65962449  0.69561466    -0.71700
O437        O  0.24650085  0.68439612  0.66822902    -0.71500
O438        O  0.24679526  0.63202838  0.67159733    -0.71500
O439        O  0.27652166  0.63211005  0.66929664    -0.71500
O440        O  0.27641179  0.68478056  0.66991740    -0.71500
O441        O  0.27652515  0.65812019  0.69550554    -0.71500
O442        O  0.27640946  0.65979503  0.64296923    -0.71600
V443        V  0.24723355  0.65822576  0.66944861     1.35200
V444        V  0.27592346  0.65854267  0.66928920     1.35200
C445        C  0.26151416  0.66005637  0.63394654     0.77800
C446        C  0.26157215  0.65920350  0.70445587     0.77800
C447        C  0.26138173  0.69346715  0.66920837     0.77700
C448        C  0.26175875  0.62322279  0.67255802     0.77700
O449        O  0.83510638  0.22008546  0.64582313    -0.71400
O450        O  0.83698492  0.22837157  0.69773359    -0.71700
O451        O  0.81055009  0.22811509  0.67175075    -0.71500
O452        O  0.86228361  0.22067492  0.67250210    -0.71500
O453        O  0.86660484  0.24951884  0.66558675    -0.71500
O454        O  0.81515821  0.25774391  0.66888687    -0.71500
O455        O  0.84316202  0.25751867  0.69300781    -0.71500
O456        O  0.83780975  0.24968609  0.64108700    -0.71600
V457        V  0.83641630  0.22482929  0.67176293     1.35200
V458        V  0.84070307  0.25304136  0.66715385     1.35200
C459        C  0.83432878  0.23364642  0.63474746     0.77800
C460        C  0.84073271  0.24423610  0.70418161     0.77800
C461        C  0.80406622  0.24425327  0.67007437     0.77700
C462        C  0.87335138  0.23415918  0.67045486     0.77700
O463        O  0.69646488  0.22132551  0.83326479    -0.71400
O464        O  0.69377135  0.23546624  0.78271504    -0.71700
O465        O  0.72053172  0.23192477  0.80783150    -0.71500
O466        O  0.66913895  0.22429345  0.80782510    -0.71500
O467        O  0.66468331  0.25310255  0.81502966    -0.71500
O468        O  0.71695780  0.26052683  0.81639541    -0.71500
O469        O  0.69033301  0.26429391  0.79086207    -0.71500
O470        O  0.69209338  0.24988778  0.84152195    -0.71600
V471        V  0.69479029  0.22883020  0.80811812     1.35200
V472        V  0.69094261  0.25639517  0.81593036     1.35200
C473        C  0.69634586  0.23346177  0.84594059     0.77800
C474        C  0.69180868  0.25229573  0.77822735     0.77800
C475        C  0.72762744  0.24724823  0.81233257     0.77700
C476        C  0.65810106  0.23758418  0.80981838     0.77700
O477        O  0.66291964  0.25305100  0.66575552    -0.71400
O478        O  0.71419922  0.24272032  0.66191493    -0.71700
O479        O  0.68944596  0.24538722  0.68951191    -0.71500
O480        O  0.68852591  0.25053890  0.63697717    -0.71500
O481        O  0.69591842  0.27931071  0.64004228    -0.71500
O482        O  0.69438826  0.27506772  0.69200680    -0.71500
O483        O  0.72024454  0.27197950  0.66603953    -0.71500
O484        O  0.66910755  0.28241036  0.66665406    -0.71600
V485        V  0.68874574  0.24847017  0.66340617     1.35200
V486        V  0.69465097  0.27664184  0.66598607     1.35200
C487        C  0.65747105  0.26944722  0.66882076     0.77800
C488        C  0.72590907  0.25558158  0.66397783     0.77800
C489        C  0.69202450  0.25951052  0.69959488     0.77700
C490        C  0.69405590  0.26548726  0.62949575     0.77700
O491        O  0.84257829  0.25808935  0.84636934    -0.71400
O492        O  0.84265607  0.26256513  0.79373336    -0.71700
O493        O  0.81665800  0.26186919  0.82037930    -0.71500
O494        O  0.86898535  0.25917856  0.81896797    -0.71500
O495        O  0.86741590  0.22930690  0.81640979    -0.71500
O496        O  0.81502833  0.23189212  0.81767937    -0.71500
O497        O  0.84122042  0.23254710  0.79146926    -0.71500
O498        O  0.84051802  0.22838476  0.84378979    -0.71600
V499        V  0.84276146  0.25984390  0.81996916     1.35200
V500        V  0.84116577  0.23109711  0.81756915     1.35200
C501        C  0.84018933  0.24252692  0.85418247     0.77800
C502        C  0.84223389  0.24817591  0.78367918     0.77800
C503        C  0.80695973  0.24737259  0.81867178     0.77700
C504        C  0.87703254  0.24402041  0.81552855     0.77700
N505        N  0.22658223  0.43517931  0.77916826    -0.03100
C506        C  0.21226570  0.42350584  0.78419593    -0.00600
C507        C  0.19935037  0.43283129  0.79470750    -0.23400
C508        C  0.20555348  0.45051057  0.79682286    -0.23600
C509        C  0.22200093  0.45178476  0.78728938    -0.00700
H510        H  0.18666309  0.42716183  0.80040892     0.13100
H511        H  0.19875369  0.46146867  0.80444627     0.13200
N512        N  0.29946263  0.43988159  0.74800948    -0.03100
C513        C  0.31569114  0.43072343  0.75161114    -0.00600
C514        C  0.33049124  0.44285077  0.75106485    -0.23400
C515        C  0.32379147  0.45988376  0.74705249    -0.23600
C516        C  0.30511880  0.45771889  0.74437246    -0.00700
H517        H  0.34494229  0.43937038  0.75201529     0.13100
H518        H  0.33194341  0.47218113  0.74431948     0.13200
N519        N  0.26749967  0.53626851  0.71201117    -0.03100
C520        C  0.26359237  0.54601743  0.69610714    -0.00600
C521        C  0.26366865  0.53436167  0.68092443    -0.23400
C522        C  0.26716659  0.51699221  0.68710905    -0.23600
C523        C  0.27024442  0.51841913  0.70584061    -0.00700
H524        H  0.26195329  0.53824327  0.66659212     0.13100
H525        H  0.26870844  0.50474578  0.67859391     0.13200
N526        N  0.25277505  0.54212734  0.79012881    -0.03100
C527        C  0.25375691  0.55553228  0.80365041    -0.00600
C528        C  0.25121288  0.54785524  0.82093882    -0.23400
C529        C  0.24750606  0.52959806  0.81844207    -0.23600
C530        C  0.24886008  0.52606511  0.79972354    -0.00700
H531        H  0.25063245  0.55520820  0.83403167     0.13100
H532        H  0.24377341  0.51986882  0.82920930     0.13200
N533        N  0.24592148  0.93634199  0.69092863    -0.03100
C534        C  0.24087710  0.92234360  0.67888551    -0.00600
C535        C  0.23197444  0.92962263  0.66374877    -0.23400
C536        C  0.23087887  0.94825323  0.66632752    -0.23600
C537        C  0.23985723  0.95238486  0.68263232    -0.00700
H538        H  0.22667537  0.92201367  0.65198106     0.13100
H539        H  0.22466340  0.95799753  0.65688641     0.13200
N540        N  0.28327126  0.93872598  0.76122132    -0.03100
C541        C  0.28691671  0.92730450  0.77613259    -0.00600
C542        C  0.29803043  0.93644633  0.78868423    -0.23400
C543        C  0.30101157  0.95388916  0.78220797    -0.23600
C544        C  0.29208626  0.95520045  0.76550353    -0.00700
H545        H  0.30298632  0.93104530  0.80170806     0.13100
H546        H  0.30850675  0.96481586  0.78926056     0.13200
N547        N  0.23170988  0.04610549  0.69921786    -0.03100
C548        C  0.21827306  0.05871869  0.69476239    -0.00600
C549        C  0.20665259  0.05125092  0.68158921    -0.23400
C550        C  0.21235553  0.03350984  0.67822473    -0.23600
C551        C  0.22765635  0.03052468  0.68904270    -0.00700
H552        H  0.19467457  0.05780720  0.67566529     0.13100
H553        H  0.20565660  0.02353497  0.66925472     0.13200
N554        N  0.29452007  0.04834462  0.74670622    -0.03100
C555        C  0.30371722  0.06263861  0.75540950    -0.00600
C556        C  0.30824049  0.05696405  0.77313555    -0.23400
C557        C  0.30296772  0.03873909  0.77497534    -0.23600
C558        C  0.29468646  0.03363841  0.75862968    -0.00700
H559        H  0.31628160  0.06472229  0.78309412     0.13100
H560        H  0.30610561  0.02975097  0.78647781     0.13200
N561        N  0.96491499  0.24878099  0.77737133    -0.03100
C562        C  0.95464939  0.24574553  0.79326162    -0.00600
C563        C  0.96565594  0.24756240  0.80870330    -0.23400
C564        C  0.98303652  0.25141833  0.80275390    -0.23600
C565        C  0.98235019  0.25261305  0.78377336    -0.00700
H566        H  0.96123417  0.24699311  0.82304290     0.13100
H567        H  0.99474694  0.25465815  0.81146074     0.13200
N568        N  0.96342266  0.22733743  0.70097808    -0.03100
C569        C  0.95157442  0.22749461  0.68622417    -0.00600
C570        C  0.96072555  0.22266908  0.67015201    -0.23400
C571        C  0.97840584  0.21869730  0.67484659    -0.23600
C572        C  0.98002182  0.22183163  0.69360178    -0.00700
H573        H  0.95477081  0.22109076  0.65655404     0.13100
H574        H  0.98902128  0.21368513  0.66554135     0.13200
N575        N  0.06773225  0.27474516  0.75653975    -0.03100
C576        C  0.08189982  0.28494941  0.76396393    -0.00600
C577        C  0.07566125  0.29677272  0.77744765    -0.23400
C578        C  0.05711981  0.29460930  0.77819503    -0.23600
C579        C  0.05200653  0.28197378  0.76456987    -0.00700
H580        H  0.08379965  0.30625117  0.78567923     0.13100
H581        H  0.04846239  0.30135223  0.78830354     0.13200
N582        N  0.06802377  0.20274242  0.72203369    -0.03100
C583        C  0.08048153  0.18860159  0.72004084    -0.00600
C584        C  0.07177151  0.17271887  0.71377891    -0.23400
C585        C  0.05371034  0.17698288  0.71117425    -0.23600
C586        C  0.05149998  0.19525058  0.71644178    -0.00700
H587        H  0.07823957  0.15962271  0.71034295     0.13100
H588        H  0.04329886  0.16783778  0.70544651     0.13200
O589        O  0.19498922  0.14572147  0.70513087    -0.71400
O590        O  0.19594498  0.19629318  0.72001193    -0.71700
O591        O  0.22063516  0.16947186  0.71615671    -0.71500
O592        O  0.16920288  0.17370544  0.70925187    -0.71500
O593        O  0.16448429  0.16342846  0.73694703    -0.71500
O594        O  0.21607971  0.16309600  0.74511744    -0.71500
O595        O  0.18956105  0.18812555  0.74824775    -0.71500
O596        O  0.19210670  0.13740161  0.73381274    -0.71600
V597        V  0.19494274  0.17098470  0.71310586     1.35200
V598        V  0.19047981  0.16300726  0.74043911     1.35200
C599        C  0.19548479  0.13300069  0.71718321     0.77800
C600        C  0.19303038  0.20075654  0.73664924     0.77800
C601        C  0.22712449  0.16640415  0.73199007     0.77700
C602        C  0.15808820  0.17079410  0.72246739     0.77700
O603        O  0.18800193  0.33497688  0.78341186    -0.71400
O604        O  0.19489067  0.28358918  0.77329615    -0.71700
O605        O  0.21716397  0.31300512  0.78098403    -0.71500
O606        O  0.16558935  0.30520290  0.77616168    -0.71500
O607        O  0.16723669  0.31202188  0.74701365    -0.71500
O608        O  0.21917091  0.31800887  0.75152722    -0.71500
O609        O  0.19610738  0.28991010  0.74398632    -0.71500
O610        O  0.19109214  0.34099095  0.75432490    -0.71600
V611        V  0.19138405  0.30935945  0.77793108     1.35200
V612        V  0.19325712  0.31519475  0.74979723     1.35200
C613        C  0.19029772  0.34688532  0.77075203     0.77800
C614        C  0.19582779  0.27801165  0.75671144     0.53800
C615        C  0.22697776  0.31707506  0.76709571     0.77700
C616        C  0.15783559  0.30602629  0.76058566     0.77700
O617        O  0.36053854  0.31506692  0.72796607    -0.71400
O618        O  0.31015766  0.31912839  0.74237900    -0.71700
O619        O  0.33623823  0.34348634  0.73279576    -0.71500
O620        O  0.33395596  0.29116358  0.73765017    -0.71500
O621        O  0.34299874  0.29342865  0.76619430    -0.71500
O622        O  0.34325317  0.34577519  0.76164444    -0.71500
O623        O  0.31813892  0.32063997  0.77121021    -0.71500
O624        O  0.36862397  0.31825899  0.75659728    -0.71600
V625        V  0.33544370  0.31729243  0.73572889     1.35200
V626        V  0.34320308  0.31954908  0.76333171     1.35200
C627        C  0.37319648  0.31520192  0.73993703     0.77800
C628        C  0.30553819  0.32058270  0.75920807     0.77800
C629        C  0.33880100  0.35370661  0.74675800     0.77700
C630        C  0.33828812  0.28345535  0.75264986     0.77700
O631        O  0.36837419  0.17221639  0.73554862    -0.71400
O632        O  0.31650994  0.16956571  0.72844715    -0.71700
O633        O  0.34130863  0.19660455  0.73403991    -0.71500
O634        O  0.34254216  0.14393822  0.72937538    -0.71500
O635        O  0.33782031  0.14134894  0.75891203    -0.71500
O636        O  0.33797422  0.19394717  0.76380826    -0.71500
O637        O  0.31250785  0.16782125  0.75813735    -0.71500
O638        O  0.36420119  0.16822778  0.76489835    -0.71600
V639        V  0.34227001  0.17036130  0.73240810     1.35200
V640        V  0.33835897  0.16775480  0.76086062     1.35200
C641        C  0.37491298  0.17265622  0.75176963     0.77800
C642        C  0.30569916  0.16853490  0.74216182     0.77800
C643        C  0.33937930  0.20414447  0.74968489     0.77700
C644        C  0.33841185  0.13379499  0.74309792     0.77700
N645        N  0.56948953  0.22926408  0.77622883    -0.03100
C646        C  0.58130429  0.22548700  0.79057221    -0.00600
C647        C  0.57313155  0.21356981  0.80312175    -0.23400
C648        C  0.55573043  0.21013424  0.79708253    -0.23600
C649        C  0.55368253  0.21965757  0.78071298    -0.00700
H650        H  0.57924012  0.20809791  0.81559715     0.13100
H651        H  0.54537707  0.20182425  0.80410457     0.13200
N652        N  0.57179988  0.27659770  0.71203419    -0.03100
C653        C  0.58505418  0.28528102  0.70129998    -0.00600
C654        C  0.57764570  0.30063482  0.69278750    -0.23400
C655        C  0.55960869  0.30167973  0.69810381    -0.23600
C656        C  0.55606619  0.28671843  0.70951643    -0.00700
H657        H  0.58448850  0.30961296  0.68287345     0.13100
H658        H  0.54960338  0.31145815  0.69290058     0.13200
N659        N  0.46114123  0.21461873  0.76219593    -0.03100
C660        C  0.44838395  0.20179897  0.76853799    -0.00600
C661        C  0.45627708  0.19048412  0.78163646    -0.23400
C662        C  0.47404308  0.19622641  0.78379815    -0.23600
C663        C  0.47699658  0.21066798  0.77159766    -0.00700
H664        H  0.44980171  0.17877076  0.78854370     0.13100
H665        H  0.48429396  0.18961264  0.79239575     0.13200
N666        N  0.46241906  0.28506226  0.72452453    -0.03100
C667        C  0.44983979  0.29906854  0.72187200    -0.00600
C668        C  0.45764820  0.31327114  0.71166383    -0.23400
C669        C  0.47549061  0.30863225  0.70830985    -0.23600
C670        C  0.47826184  0.29139450  0.71601285    -0.00700
H671        H  0.45105347  0.32608229  0.70754962     0.13100
H672        H  0.48566801  0.31716173  0.70121161     0.13200
C673        C  0.46520139  0.23329760  0.73339266    -0.01500
C674        C  0.45829099  0.23153316  0.75155887     0.08200
C675        C  0.45150344  0.24771249  0.76031334    -0.01600
C676        C  0.45339417  0.26537090  0.75188665    -0.01600
C677        C  0.45974680  0.26699340  0.73342280     0.08300
C678        C  0.46432549  0.25041231  0.72397741    -0.01800
Br679      Br  0.46761565  0.25030250  0.69766768    -0.00400
Br680      Br  0.47732960  0.21292272  0.72146648    -0.00400
Br681      Br  0.44941352  0.28703933  0.76688414    -0.00400
Br682      Br  0.44136794  0.24626472  0.78483253    -0.00400
C683        C  0.52775694  0.28456327  0.73035900    -0.01500
C684        C  0.53649043  0.28089338  0.71322606     0.08200
C685        C  0.52524563  0.27723551  0.69770449    -0.01600
C686        C  0.50603673  0.27983884  0.69869534    -0.01600
C687        C  0.49721210  0.28325069  0.71590060     0.08300
C688        C  0.50828228  0.28486169  0.73182456    -0.01800
Br689      Br  0.49705212  0.29150681  0.75507012    -0.00400
Br690      Br  0.54193629  0.29264463  0.75119609    -0.00400
Br691      Br  0.49275865  0.28248534  0.67568018    -0.00400
Br692      Br  0.53638166  0.27126573  0.67407657    -0.00400
C693        C  0.52330061  0.23515398  0.77642398    -0.01500
C694        C  0.53519310  0.22037687  0.77187976     0.08200
C695        C  0.52741544  0.20379489  0.76477502    -0.01600
C696        C  0.50847375  0.20265121  0.76088894    -0.01600
C697        C  0.49632213  0.21662092  0.76717526     0.08300
C698        C  0.50397079  0.23296382  0.77489557    -0.01800
Br699      Br  0.48841653  0.25086284  0.78678693    -0.00400
Br700      Br  0.53313409  0.25669164  0.78890994    -0.00400
Br701      Br  0.49883555  0.18013655  0.74981772    -0.00400
Br702      Br  0.54135559  0.18093458  0.76462207    -0.00400
C703        C  0.57831786  0.25940809  0.76088855    -0.01500
C704        C  0.57260644  0.24063399  0.75968661     0.08200
C705        C  0.56880841  0.23352377  0.74181170    -0.01600
C706        C  0.56791815  0.24533637  0.72630147    -0.01600
C707        C  0.57439631  0.26374389  0.72732710     0.08300
C708        C  0.58046408  0.27034003  0.74472771    -0.01800
Br709      Br  0.58932658  0.29539585  0.74714988    -0.00400
Br710      Br  0.58082216  0.27142297  0.78447033    -0.00400
Br711      Br  0.55607605  0.23639721  0.70433607    -0.00400
Br712      Br  0.56690693  0.20738872  0.73748660    -0.00400
C713        C  0.39696086  0.19125792  0.77169358    -0.01500
C714        C  0.39387191  0.18028246  0.75565226     0.08200
C715        C  0.40863016  0.17802027  0.74302012    -0.01600
C716        C  0.42605598  0.18636509  0.74643583    -0.01600
C717        C  0.42907581  0.19760037  0.76226677     0.08300
C718        C  0.41449337  0.19898108  0.77530450    -0.01800
Br719      Br  0.41889349  0.20884341  0.79976741    -0.00400
Br720      Br  0.37710171  0.19724975  0.78868831    -0.00400
Br721      Br  0.44653452  0.17923889  0.73112349    -0.00400
Br722      Br  0.40561791  0.16213950  0.72167996    -0.00400
C723        C  0.40722610  0.32152427  0.74289778    -0.01500
C724        C  0.39282326  0.31105546  0.73494467     0.08200
C725        C  0.39739628  0.29591743  0.72322083    -0.01600
C726        C  0.41601859  0.29069448  0.72053054    -0.01600
C727        C  0.43040618  0.30098025  0.72872031     0.08300
C728        C  0.42579126  0.31669601  0.73967931    -0.01800
Br729      Br  0.44497270  0.33233386  0.74999282    -0.00400
Br730      Br  0.40163282  0.34387514  0.75660801    -0.00400
Br731      Br  0.42182434  0.27019987  0.70445040    -0.00400
Br732      Br  0.37837216  0.28234808  0.71026138    -0.00400
C733        C  0.35551555  0.23464318  0.75046114    -0.01500
C734        C  0.33897319  0.22440977  0.75140711     0.08200
C735        C  0.32207334  0.23367571  0.75371050    -0.01600
C736        C  0.32172166  0.25316750  0.75367884    -0.01600
C737        C  0.33839567  0.26322156  0.75391831     0.08300
C738        C  0.35530899  0.25383544  0.75343094    -0.01800
Br739      Br  0.37819306  0.26707157  0.75691215    -0.00400
Br740      Br  0.37824363  0.22293696  0.74343917    -0.00400
Br741      Br  0.29852387  0.26606006  0.75291089    -0.00400
Br742      Br  0.29945326  0.21979814  0.75635767    -0.00400
C743        C  0.25849073  0.31060994  0.78069514    -0.01500
C744        C  0.24709075  0.32078154  0.76858398     0.08200
C745        C  0.25527453  0.33403139  0.75673458    -0.01600
C746        C  0.27449168  0.33461524  0.75450223    -0.01600
C747        C  0.28579317  0.32229215  0.76437951     0.08300
C748        C  0.27783795  0.31122434  0.77844649    -0.01800
Br749      Br  0.29315096  0.29604107  0.79399940    -0.00400
Br750      Br  0.24803175  0.29565597  0.80025688    -0.00400
Br751      Br  0.28524892  0.35292245  0.73832576    -0.00400
Br752      Br  0.24030207  0.35233853  0.74437612    -0.00400
C753        C  0.27713113  0.18026302  0.72717296    -0.01500
C754        C  0.28559072  0.16795235  0.73962975     0.08200
C755        C  0.27472288  0.15510266  0.74972219    -0.01600
C756        C  0.25563281  0.15412853  0.74679795    -0.01600
C757        C  0.24713604  0.16701241  0.73496461     0.08300
C758        C  0.25789396  0.18050842  0.72570176    -0.01800
Br759      Br  0.24643277  0.20053521  0.71223609    -0.00400
Br760      Br  0.29155242  0.19723292  0.71220117    -0.00400
Br761      Br  0.24152584  0.13434234  0.75823896    -0.00400
Br762      Br  0.28582949  0.13797532  0.76690126    -0.00400
C763        C  0.18198627  0.23306332  0.73344883    -0.01500
C764        C  0.19359086  0.22032402  0.74225406     0.08200
C765        C  0.20604496  0.22641184  0.75590946    -0.01600
C766        C  0.20675718  0.24528940  0.76088622    -0.01600
C767        C  0.19525493  0.25812610  0.75192827     0.08300
C768        C  0.18285470  0.25191855  0.73815598    -0.01800
Br769      Br  0.16621143  0.26885348  0.72605872    -0.00400
Br770      Br  0.16426861  0.22454758  0.71538479    -0.00400
Br771      Br  0.22424427  0.25358060  0.77916325    -0.00400
Br772      Br  0.22298204  0.20911008  0.76690908    -0.00400
C773        C  0.11058414  0.18861869  0.73743763    -0.01500
C774        C  0.10104545  0.18923292  0.72056130     0.08200
C775        C  0.11075678  0.18505118  0.70404140    -0.01600
C776        C  0.12907522  0.17859070  0.70456475    -0.01600
C777        C  0.13848584  0.17729654  0.72161654     0.08300
C778        C  0.12938999  0.18369427  0.73786040    -0.01800
Br779      Br  0.14256158  0.18696748  0.76082966    -0.00400
Br780      Br  0.09770307  0.19265331  0.76035644    -0.00400
Br781      Br  0.14041148  0.17039471  0.68174442    -0.00400
Br782      Br  0.09843256  0.18708326  0.68044478    -0.00400
C783        C  0.06369881  0.24044980  0.75828072    -0.01500
C784        C  0.06992340  0.25630738  0.74851382     0.08200
C785        C  0.07837711  0.25360957  0.73104792    -0.01600
C786        C  0.07986317  0.23556901  0.72335764    -0.01600
C787        C  0.07048142  0.22041283  0.73161036     0.08300
C788        C  0.06269347  0.22302656  0.74937789    -0.01800
Br789      Br  0.05088243  0.20264863  0.76194100    -0.00400
Br790      Br  0.05678452  0.24239325  0.78402668    -0.00400
Br791      Br  0.09532744  0.23195624  0.70200360    -0.00400
Br792      Br  0.08624237  0.27455566  0.71658487    -0.00400
C793        C  0.10671750  0.30347603  0.74881152    -0.01500
C794        C  0.10133251  0.28673928  0.75762800     0.08200
C795        C  0.11491042  0.27548329  0.76553149    -0.01600
C796        C  0.13341868  0.28156102  0.76603343    -0.01600
C797        C  0.13861428  0.29893841  0.75832201     0.08300
C798        C  0.12530721  0.30931449  0.74876508    -0.01800
Br799      Br  0.13206524  0.33240003  0.73699330    -0.00400
Br800      Br  0.08818386  0.31949896  0.73839536    -0.00400
Br801      Br  0.15146055  0.26578352  0.77750840    -0.00400
Br802      Br  0.10785307  0.25244512  0.77713408    -0.00400
C803        C  0.99956329  0.20288407  0.71532016    -0.01500
C804        C  0.99790123  0.21807391  0.70314782     0.08200
C805        C  0.01427745  0.22604980  0.69582418    -0.01600
C806        C  0.03169001  0.21875507  0.70031558    -0.01600
C807        C  0.03341924  0.20480948  0.71381791     0.08300
C808        C  0.01707651  0.19679299  0.72118512    -0.01800
Br809      Br  0.01832898  0.17606859  0.73811302    -0.00400
Br810      Br  0.97831704  0.18819756  0.72175276    -0.00400
Br811      Br  0.05244210  0.22540212  0.68504484    -0.00400
Br812      Br  0.01314846  0.24607055  0.67806727    -0.00400
C813        C  0.00225338  0.28033896  0.77771657    -0.01500
C814        C  0.99792749  0.26162671  0.77370686     0.08200
C815        C  0.00917567  0.25194736  0.76109806    -0.01600
C816        C  0.02530793  0.26041602  0.75394386    -0.01600
C817        C  0.03176068  0.27714116  0.76172313     0.08300
C818        C  0.01830587  0.28839697  0.77036179    -0.01800
Br819      Br  0.02008599  0.31515165  0.76905925    -0.00400
Br820      Br  0.98629829  0.29521054  0.79323560    -0.00400
Br821      Br  0.03186225  0.25495000  0.72890785    -0.00400
Br822      Br  0.00342058  0.22682345  0.75470508    -0.00400
C823        C  0.95222764  0.22827323  0.75205322    -0.01500
C824        C  0.96015223  0.24538104  0.75789498     0.08200
C825        C  0.96604309  0.25772415  0.74371313    -0.01600
C826        C  0.96798250  0.25145617  0.72527173    -0.01600
C827        C  0.96029268  0.23434914  0.71967488     0.08300
C828        C  0.95043583  0.22400251  0.73301747    -0.01800
Br829      Br  0.93434650  0.20405760  0.72564612    -0.00400
Br830      Br  0.94637651  0.20887765  0.76922208    -0.00400
Br831      Br  0.98113692  0.26664331  0.70772760    -0.00400
Br832      Br  0.96955562  0.28376280  0.74838822    -0.00400
C833        C  0.34132914  0.09940377  0.74897094    -0.01500
C834        C  0.33191695  0.11417622  0.74081477     0.08200
C835        C  0.31435689  0.11062427  0.73325307    -0.01600
C836        C  0.30460328  0.09411970  0.73770723    -0.01600
C837        C  0.31366200  0.07923643  0.74674005     0.08300
C838        C  0.33287827  0.08170083  0.75035290    -0.01800
Br839      Br  0.34821529  0.06092312  0.75678470    -0.00400
Br840      Br  0.36588702  0.10359168  0.75818590    -0.00400
Br841      Br  0.27857714  0.09428225  0.73331457    -0.00400
Br842      Br  0.30340744  0.12850434  0.71689854    -0.00400
C843        C  0.28136173  0.04695898  0.71532966    -0.01500
C844        C  0.27923782  0.05045984  0.73422638     0.08200
C845        C  0.26151768  0.05449787  0.74133159    -0.01600
C846        C  0.24582238  0.05274225  0.73005808    -0.01600
C847        C  0.24774708  0.04867682  0.71101618     0.08300
C848        C  0.26585556  0.04693336  0.70363968    -0.01800
Br849      Br  0.27005062  0.04659205  0.67747928    -0.00400
Br850      Br  0.30573826  0.04271210  0.70568824    -0.00400
Br851      Br  0.22201174  0.05482056  0.74154378    -0.00400
Br852      Br  0.25893465  0.06365338  0.76641307    -0.00400
C853        C  0.21893900  0.11103331  0.70351996    -0.01500
C854        C  0.20162937  0.11381564  0.71226114     0.08200
C855        C  0.19099002  0.09817762  0.71716944    -0.01600
C856        C  0.19678065  0.08017605  0.71203430    -0.01600
C857        C  0.21411846  0.07732299  0.70321665     0.08300
C858        C  0.22524224  0.09294617  0.69934710    -0.01800
Br859      Br  0.24864312  0.08990081  0.68713488    -0.00400
Br860      Br  0.23449943  0.13194586  0.69738359    -0.00400
Br861      Br  0.18041385  0.05943316  0.71682506    -0.00400
Br862      Br  0.16803697  0.10145215  0.73035134    -0.00400
C863        C  0.30763534  0.98350315  0.75185618    -0.01500
C864        C  0.29105132  0.97380611  0.75616172     0.08200
C865        C  0.27468364  0.98420667  0.75768870    -0.01600
C866        C  0.27532712  0.00386679  0.75768388    -0.01600
C867        C  0.29193039  0.01350102  0.75365923     0.08300
C868        C  0.30767967  0.00293640  0.74932525    -0.01800
Br869      Br  0.33021105  0.01540276  0.74218028    -0.00400
Br870      Br  0.33118777  0.97110823  0.75264119    -0.00400
Br871      Br  0.25394004  0.01695494  0.76612055    -0.00400
Br872      Br  0.25169441  0.97179304  0.76297940    -0.00400
C873        C  0.23306329  0.98013458  0.70332669    -0.01500
C874        C  0.24251918  0.97240654  0.68803681     0.08200
C875        C  0.24927210  0.98472925  0.67424714    -0.01600
C876        C  0.24445705  0.00364972  0.67453675    -0.01600
C877        C  0.23600097  0.01156926  0.69032601     0.08300
C878        C  0.23078461  0.99960744  0.70494352    -0.01800
Br879      Br  0.21695097  0.00932941  0.72552845    -0.00400
Br880      Br  0.21970375  0.96430434  0.72005278    -0.00400
Br881      Br  0.24586377  0.01727647  0.65152730    -0.00400
Br882      Br  0.26315609  0.97542197  0.65326201    -0.00400
C883        C  0.24717349  0.92715654  0.72443841    -0.01500
C884        C  0.25571878  0.93479521  0.70846500     0.08200
C885        C  0.27395442  0.94137948  0.71014738    -0.01600
C886        C  0.28359586  0.93927854  0.72685338    -0.01600
C887        C  0.27434094  0.93471448  0.74347537     0.08300
C888        C  0.25587944  0.92831850  0.74201833    -0.01800
Br889      Br  0.24172000  0.92237518  0.76374900    -0.00400
Br890      Br  0.22300836  0.91623358  0.72268719    -0.00400
Br891      Br  0.30999515  0.93975898  0.72607278    -0.00400
Br892      Br  0.28608111  0.95390261  0.68999020    -0.00400
C893        C  0.27917546  0.53687708  0.74479347    -0.01500
C894        C  0.26578814  0.54203855  0.73149974     0.08200
C895        C  0.24926704  0.55007539  0.73841080    -0.01600
C896        C  0.24640925  0.55266945  0.75765108    -0.01600
C897        C  0.25788813  0.54376813  0.77056813     0.08300
C898        C  0.27456347  0.53614373  0.76388507    -0.01800
Br899      Br  0.29147411  0.52505543  0.78098827    -0.00400
Br900      Br  0.30409672  0.53131673  0.73735154    -0.00400
Br901      Br  0.22650092  0.56824460  0.76586793    -0.00400
Br902      Br  0.22866659  0.55451137  0.72255676    -0.00400
C903        C  0.28013978  0.48155909  0.74198233    -0.01500
C904        C  0.29495885  0.47211920  0.73399835     0.08200
C905        C  0.30174520  0.47803255  0.71664758    -0.01600
C906        C  0.29481659  0.49422606  0.70856710    -0.01600
C907        C  0.27874952  0.50267326  0.71591468     0.08300
C908        C  0.27073201  0.49521482  0.73199175    -0.01800
Br909      Br  0.24623203  0.50193777  0.73907511    -0.00400
Br910      Br  0.27481228  0.47762829  0.76729982    -0.00400
Br911      Br  0.30860536  0.50540172  0.68846309    -0.00400
Br912      Br  0.32034432  0.46392121  0.70361776    -0.00400
C913        C  0.33165103  0.40281908  0.76451835    -0.01500
C914        C  0.31947929  0.41034353  0.75120007     0.08200
C915        C  0.31653664  0.40021440  0.73470810    -0.01600
C916        C  0.32407172  0.38229428  0.73231279    -0.01600
C917        C  0.33473603  0.37411387  0.74653920     0.08300
C918        C  0.33956809  0.38520337  0.76194009    -0.01800
Br919      Br  0.35908628  0.37765133  0.77848379    -0.00400
Br920      Br  0.33916113  0.41702357  0.78597934    -0.00400
Br921      Br  0.32088334  0.37018602  0.70858505    -0.00400
Br922      Br  0.30435267  0.41174833  0.71413199    -0.00400
C923        C  0.24588872  0.47355068  0.79991816    -0.01500
C924        C  0.23204339  0.46981201  0.78682450     0.08200
C925        C  0.22380727  0.48491750  0.77764991    -0.01600
C926        C  0.22952173  0.50331542  0.78135032    -0.01600
C927        C  0.24486739  0.50689830  0.79276088     0.08300
C928        C  0.25302990  0.49166943  0.80202989    -0.01800
Br929      Br  0.27424002  0.49524574  0.81783403    -0.00400
Br930      Br  0.25383984  0.45450408  0.81659582    -0.00400
Br931      Br  0.21396155  0.52320038  0.77340176    -0.00400
Br932      Br  0.20279143  0.48065974  0.76182393    -0.00400
C933        C  0.25933031  0.42484969  0.77878630    -0.01500
C934        C  0.24385333  0.43137688  0.76919203     0.08200
C935        C  0.24689819  0.43757654  0.75082744    -0.01600
C936        C  0.26491911  0.43758612  0.74279035    -0.01600
C937        C  0.28071599  0.43447196  0.75393305     0.08300
C938        C  0.27733222  0.42872060  0.77237249    -0.01800
Br939      Br  0.29591633  0.43110613  0.79092408    -0.00400
Br940      Br  0.25647946  0.41016345  0.80062332    -0.00400
Br941      Br  0.26746854  0.44229646  0.71670016    -0.00400
Br942      Br  0.22661410  0.44648996  0.73658878    -0.00400
C943        C  0.19838098  0.39894506  0.76398547    -0.01500
C944        C  0.20882718  0.40357143  0.77978963     0.08200
C945        C  0.20940317  0.39044471  0.79434000    -0.01600
C946        C  0.20288149  0.37214391  0.79176562    -0.01600
C947        C  0.19430728  0.36689568  0.77493236     0.08300
C948        C  0.19148122  0.38074986  0.76136980    -0.01800
Br949      Br  0.17656555  0.37559778  0.73984346    -0.00400
Br950      Br  0.19020188  0.41833700  0.74770054    -0.00400
Br951      Br  0.20589067  0.35479736  0.81194394    -0.00400
Br952      Br  0.21607376  0.39816108  0.81910102    -0.00400
C953        C  0.90872480  0.22916219  0.81377258    -0.01500
C954        C  0.89676941  0.24378184  0.80900697     0.08200
C955        C  0.90352855  0.25784234  0.79693228    -0.01600
C956        C  0.92207705  0.25786346  0.79077852    -0.01600
C957        C  0.93416308  0.24352325  0.79586519     0.08300
C958        C  0.92728757  0.22925965  0.80767921    -0.01800
Br959      Br  0.94352080  0.21010360  0.81680333    -0.00400
Br960      Br  0.90013599  0.20915835  0.82941752    -0.00400
Br961      Br  0.93134161  0.27903131  0.77740184    -0.00400
Br962      Br  0.88740507  0.27697569  0.78773775    -0.00400
C963        C  0.62318248  0.26226985  0.67253674    -0.01500
C964        C  0.63874696  0.27323667  0.67703826     0.08200
C965        C  0.63667084  0.28717481  0.69078740    -0.01600
C966        C  0.61940819  0.29034974  0.69931093    -0.01600
C967        C  0.60396793  0.27884694  0.69554644     0.08300
C968        C  0.60596153  0.26530961  0.68141654    -0.01800
Br969      Br  0.58452845  0.25327018  0.67144311    -0.00400
Br970      Br  0.62487186  0.24400334  0.65301123    -0.00400
Br971      Br  0.61671496  0.31244916  0.71417448    -0.00400
Br972      Br  0.65748720  0.30190304  0.69907417    -0.00400
C973        C  0.63345590  0.22468676  0.78867513    -0.01500
C974        C  0.63829249  0.23512898  0.80467041     0.08200
C975        C  0.62412793  0.24324651  0.81530715    -0.01600
C976        C  0.60551439  0.24098779  0.81009426    -0.01600
C977        C  0.60078656  0.23152411  0.79349960     0.08300
C978        C  0.61492761  0.22334729  0.78297135    -0.01800
Br979      Br  0.60879646  0.20832637  0.76179798    -0.00400
Br980      Br  0.65187771  0.21162938  0.77422241    -0.00400
Br981      Br  0.58643449  0.24976656  0.82671727    -0.00400
Br982      Br  0.62996105  0.25566534  0.83825363    -0.00400
C983        C  0.75900875  0.24011885  0.79969722    -0.01500
C984        C  0.74795071  0.24895310  0.81325017     0.08200
C985        C  0.75647368  0.25768401  0.82853144    -0.01600
C986        C  0.77582198  0.25753334  0.83019825    -0.01600
C987        C  0.78672978  0.24843985  0.81680795     0.08300
C988        C  0.77827014  0.24010020  0.80138312    -0.01800
Br989      Br  0.79312217  0.22920455  0.78195070    -0.00400
Br990      Br  0.74814726  0.22766099  0.77863820    -0.00400
Br991      Br  0.78721584  0.26885645  0.85144376    -0.00400
Br992      Br  0.74179928  0.26818107  0.84830081    -0.00400
C993        C  0.70774103  0.26226478  0.74921983    -0.01500
C994        C  0.69136159  0.25750490  0.75858420     0.08200
C995        C  0.67490929  0.25556491  0.74863058    -0.01600
C996        C  0.67540215  0.25457078  0.72928346    -0.01600
C997        C  0.69200324  0.25822811  0.71980759     0.08300
C998        C  0.70801386  0.26292009  0.72978958    -0.01800
Br999      Br  0.73041562  0.26965489  0.71688697    -0.00400
Br1000     Br  0.72922319  0.26939013  0.76306834    -0.00400
Br1001     Br  0.65328853  0.24826172  0.71598024    -0.00400
Br1002     Br  0.65164945  0.25779378  0.76122111    -0.00400
C1003       C  0.90233005  0.21498918  0.67438785    -0.01500
C1004       C  0.89340553  0.23241266  0.67518888     0.08200
C1005       C  0.90350363  0.24794883  0.68203372    -0.01600
C1006       C  0.92234278  0.24629789  0.68655050    -0.01600
C1007       C  0.93106133  0.22891331  0.68603949     0.08300
C1008       C  0.92078607  0.21322789  0.68014881    -0.01800
Br1009     Br  0.93243750  0.18911505  0.67885558    -0.00400
Br1010     Br  0.89008391  0.19338864  0.66421169    -0.00400
Br1011     Br  0.93652539  0.26835628  0.69148447    -0.00400
Br1012     Br  0.89189898  0.27171596  0.68625750    -0.00400
C1013       C  0.77171013  0.23700318  0.67984156    -0.01500
C1014       C  0.78404363  0.24716313  0.66856541     0.08200
C1015       C  0.77711670  0.25938428  0.65502917    -0.01600
C1016       C  0.75804510  0.26211814  0.65351293    -0.01600
C1017       C  0.74576223  0.25170038  0.66456747     0.08300
C1018       C  0.75262041  0.23861781  0.67723091    -0.01800
Br1019     Br  0.73600159  0.22319924  0.69151396    -0.00400
Br1020     Br  0.78074638  0.22201875  0.69994876    -0.00400
Br1021     Br  0.74876340  0.27958291  0.63560521    -0.00400
Br1022     Br  0.79341536  0.27157622  0.63756357    -0.00400
C1023       C  0.83013735  0.25884498  0.73379925    -0.01500
C1024       C  0.84234116  0.24694943  0.72433982     0.08200
C1025       C  0.85558860  0.23689352  0.73430440    -0.01600
C1026       C  0.85611391  0.23810184  0.75369168    -0.01600
C1027       C  0.84321934  0.24919038  0.76328414     0.08300
C1028       C  0.83060860  0.26003475  0.75325130    -0.01800
Br1029     Br  0.81319952  0.27566147  0.76607319    -0.00400
Br1030     Br  0.81184323  0.27243415  0.72018379    -0.00400
Br1031     Br  0.87503324  0.22498709  0.76700072    -0.00400
Br1032     Br  0.87327364  0.22161176  0.72138852    -0.00400
C1033       C  0.24712072  0.59135500  0.67509269    -0.01500
C1034       C  0.26195266  0.60351300  0.67905658     0.08200
C1035       C  0.27623409  0.59716263  0.69076435    -0.01600
C1036       C  0.27644120  0.57862653  0.69703493    -0.01600
C1037       C  0.26167917  0.56647488  0.69312900     0.08300
C1038       C  0.24698661  0.57306390  0.68201738    -0.01800
Br1039     Br  0.22678584  0.55678045  0.67506108    -0.00400
Br1040     Br  0.22703130  0.59917698  0.65946749    -0.00400
Br1041     Br  0.29836403  0.56945731  0.70864838    -0.00400
Br1042     Br  0.29526475  0.61385026  0.69951782    -0.00400
C1043       C  0.28819613  0.87483412  0.78153631    -0.01500
C1044       C  0.27963318  0.87251370  0.79912826     0.08200
C1045       C  0.27090880  0.88799558  0.80719580    -0.01600
C1046       C  0.27111936  0.90543539  0.79817490    -0.01600
C1047       C  0.28044883  0.90800906  0.78099818     0.08300
C1048       C  0.28869127  0.89240724  0.77269128    -0.01800
Br1049     Br  0.30188988  0.89537535  0.74972963    -0.00400
Br1050     Br  0.29943940  0.85403372  0.76913361    -0.00400
Br1051     Br  0.25933302  0.92631687  0.81009411    -0.00400
Br1052     Br  0.26027176  0.88583471  0.83161904    -0.00400
C1053       C  0.24032622  0.60371164  0.81702266    -0.01500
C1054       C  0.25666014  0.61390597  0.81336453     0.08200
C1055       C  0.27091581  0.60519138  0.80295515    -0.01600
C1056       C  0.26959953  0.58622004  0.79818186    -0.01600
C1057       C  0.25341671  0.57611843  0.80205075     0.08300
C1058       C  0.23838367  0.58540567  0.81047068    -0.01800
Br1059     Br  0.21517599  0.57245129  0.81420844    -0.00400
Br1060     Br  0.22097391  0.61375939  0.83251310    -0.00400
Br1061     Br  0.29061597  0.57391865  0.78760154    -0.00400
Br1062     Br  0.29226633  0.61888148  0.79429663    -0.00400
C1063       C  0.25047783  0.64979465  0.75477862    -0.01500
C1064       C  0.25968715  0.66475402  0.76335635     0.08200
C1065       C  0.26980936  0.67755346  0.75265346    -0.01600
C1066       C  0.27098434  0.67531389  0.73341230    -0.01600
C1067       C  0.26152097  0.66057151  0.72474069     0.08300
C1068       C  0.25136384  0.64772742  0.73544766    -0.01800
Br1069     Br  0.23964993  0.62665930  0.72375868    -0.00400
Br1070     Br  0.23731546  0.63171298  0.76950887    -0.00400
Br1071     Br  0.28525199  0.69282696  0.71901142    -0.00400
Br1072     Br  0.28132101  0.69875813  0.76430363    -0.00400
C1073       C  0.25461042  0.73539180  0.80388617    -0.01500
C1074       C  0.26454790  0.72471710  0.81669585     0.08200
C1075       C  0.27573336  0.73356653  0.83000066    -0.01600
C1076       C  0.27724428  0.75300706  0.83025638    -0.01600
C1077       C  0.26749755  0.76367315  0.81731962     0.08300
C1078       C  0.25604736  0.75485866  0.80423109    -0.01800
Br1079     Br  0.24294412  0.76934972  0.78619064    -0.00400
Br1080     Br  0.23973996  0.72336591  0.78525201    -0.00400
Br1081     Br  0.29204407  0.76508811  0.84889821    -0.00400
Br1082     Br  0.28829646  0.71921867  0.84857607    -0.00400
C1083       C  0.26302371  0.87473297  0.67235674    -0.01500
C1084       C  0.24722754  0.86336113  0.66902184     0.08200
C1085       C  0.22960114  0.87164110  0.67121430    -0.01600
C1086       C  0.22791163  0.89015559  0.67748707    -0.01600
C1087       C  0.24361777  0.90170007  0.67980120     0.08300
C1088       C  0.26110745  0.89383749  0.67658108    -0.01800
Br1089     Br  0.28253583  0.90951991  0.67518470    -0.00400
Br1090     Br  0.28783254  0.86499065  0.67114761    -0.00400
Br1091     Br  0.20348146  0.90022630  0.68143188    -0.00400
Br1092     Br  0.20723933  0.85878872  0.66400445    -0.00400
C1093       C  0.27144374  0.79972558  0.72982295    -0.01500
C1094       C  0.26001149  0.81260091  0.72086920     0.08200
C1095       C  0.25109812  0.82651474  0.73123043    -0.01600
C1096       C  0.25373098  0.82765774  0.75049316    -0.01600
C1097       C  0.26534002  0.81484263  0.75949375     0.08300
C1098       C  0.27403391  0.80075881  0.74906006    -0.01800
Br1099     Br  0.28866593  0.78204276  0.76110272    -0.00400
Br1100     Br  0.28301946  0.78009672  0.71580744    -0.00400
Br1101     Br  0.24207528  0.84745833  0.76420153    -0.00400
Br1102     Br  0.23606211  0.84465019  0.71884675    -0.00400
C1103       C  0.26941438  0.74333717  0.65575360    -0.01500
C1104       C  0.25957371  0.75261695  0.66986870     0.08200
C1105       C  0.25076898  0.74240724  0.68402168    -0.01600
C1106       C  0.25152946  0.72297171  0.68388361    -0.01600
C1107       C  0.26114372  0.71374563  0.66965489     0.08300
C1108       C  0.27018419  0.72388760  0.65567360    -0.01800
Br1109     Br  0.28242438  0.71107317  0.63562110    -0.00400
Br1110     Br  0.28065165  0.75698110  0.63562887    -0.00400
Br1111     Br  0.23960080  0.70903221  0.70339834    -0.00400
Br1112     Br  0.23799760  0.75494311  0.70391940    -0.00400
C1113       C  0.23265099  0.72090533  0.43110283    -0.01500
C1114       C  0.23312084  0.73992253  0.43586137     0.08200
C1115       C  0.25064288  0.74853541  0.43836211    -0.01600
C1116       C  0.26687973  0.73778262  0.43860582    -0.01600
C1117       C  0.26606635  0.71880762  0.43435500     0.08300
C1118       C  0.24910079  0.71101512  0.42879572    -0.01800
Br1119     Br  0.24871717  0.68802910  0.41511373    -0.00400
Br1120     Br  0.20992398  0.70708793  0.43057717    -0.00400
Br1121     Br  0.29041325  0.74909458  0.44349568    -0.00400
Br1122     Br  0.25309388  0.77502764  0.44023792    -0.00400
C1123       C  0.28075788  0.69680104  0.50054951    -0.01500
C1124       C  0.26500960  0.68624566  0.50551716     0.08200
C1125       C  0.25430241  0.67848496  0.49101893    -0.01600
C1126       C  0.25982025  0.68047578  0.47238138    -0.01600
C1127       C  0.27450598  0.69243958  0.46746248     0.08300
C1128       C  0.28475304  0.70083020  0.48178128    -0.01800
Br1129     Br  0.30618856  0.71558442  0.47569359    -0.00400
Br1130     Br  0.29894484  0.70293020  0.51877673    -0.00400
Br1131     Br  0.24906990  0.66410957  0.45429819    -0.00400
Br1132     Br  0.23293672  0.66317404  0.49636798    -0.00400
C1133       C  0.24532116  0.67683057  0.58599630    -0.01500
C1134       C  0.26129383  0.67471030  0.57505090     0.08200
C1135       C  0.27740021  0.66784974  0.58356809    -0.01600
C1136       C  0.27738112  0.66257705  0.60239759    -0.01600
C1137       C  0.26133723  0.66475089  0.61353886     0.08300
C1138       C  0.24548129  0.67265909  0.60514157    -0.01800
Br1139     Br  0.22366304  0.67853897  0.61943501    -0.00400
Br1140     Br  0.22250952  0.68368502  0.57452340    -0.00400
Br1141     Br  0.29935341  0.65101943  0.61197089    -0.00400
Br1142     Br  0.29946828  0.66416987  0.56881547    -0.00400
C1143       C  0.24113813  0.75203182  0.49976262    -0.01500
C1144       C  0.23968277  0.77000842  0.50706761     0.08200
C1145       C  0.23587815  0.78432090  0.49438569    -0.01600
C1146       C  0.22703813  0.78021515  0.47763761    -0.01600
C1147       C  0.22381618  0.76150437  0.47252880     0.08300
C1148       C  0.23166309  0.74736435  0.48343717    -0.01800
Br1149     Br  0.22843887  0.72153455  0.47773087    -0.00400
Br1150     Br  0.26349829  0.73899769  0.50425164    -0.00400
Br1151     Br  0.21865652  0.80048221  0.46237151    -0.00400
Br1152     Br  0.24345625  0.80945836  0.49986655    -0.00400
C1153       C  0.26400227  0.73935092  0.55081707    -0.01500
C1154       C  0.24683042  0.74553976  0.54425767     0.08200
C1155       C  0.23349656  0.73210760  0.53917634    -0.01600
C1156       C  0.23822817  0.71318597  0.53794380    -0.01600
C1157       C  0.25564268  0.70691570  0.54387202     0.08300
C1158       C  0.26794811  0.72009912  0.55165657    -0.01800
Br1159     Br  0.28991508  0.71219060  0.56399516    -0.00400
Br1160     Br  0.28259413  0.75729049  0.55725503    -0.00400
Br1161     Br  0.22041261  0.69591546  0.52833360    -0.00400
Br1162     Br  0.20852112  0.73952459  0.53402305    -0.00400
C1163       C  0.25488088  0.79368470  0.57924011    -0.01500
C1164       C  0.24379333  0.77777759  0.57607983     0.08200
C1165       C  0.23596007  0.76855464  0.59132578    -0.01600
C1166       C  0.23775364  0.77601982  0.60934587    -0.01600
C1167       C  0.24761917  0.79284440  0.61236195     0.08300
C1168       C  0.25696204  0.80103654  0.59723800    -0.01800
Br1169     Br  0.27161166  0.82317937  0.60075578    -0.00400
Br1170     Br  0.26601486  0.80641825  0.55846956    -0.00400
Br1171     Br  0.22692630  0.76263896  0.62978941    -0.00400
Br1172     Br  0.22214989  0.74600375  0.58723599    -0.00400
C1173       C  0.33312826  0.71669975  0.39096914    -0.01500
C1174       C  0.32409852  0.72511328  0.37612705     0.08200
C1175       C  0.30586891  0.73127882  0.37885684    -0.01600
C1176       C  0.29519458  0.72443059  0.39378319    -0.01600
C1177       C  0.30375006  0.71422588  0.40812528     0.08300
C1178       C  0.32333775  0.71280202  0.40746823    -0.01800
Br1179     Br  0.33695166  0.70555055  0.42914565    -0.00400
Br1180     Br  0.35889713  0.71084808  0.38865550    -0.00400
Br1181     Br  0.26901773  0.72770084  0.39219574    -0.00400
Br1182     Br  0.29532983  0.74895561  0.36201206    -0.00400
C1183       C  0.20904680  0.75230148  0.39510983    -0.01500
C1184       C  0.19770951  0.74541452  0.40945065     0.08200
C1185       C  0.18180229  0.73481418  0.40459528    -0.01600
C1186       C  0.17788713  0.73073399  0.38588296    -0.01600
C1187       C  0.18958627  0.73726487  0.37174846     0.08300
C1188       C  0.20539774  0.74773135  0.37652142    -0.01800
Br1189     Br  0.22259010  0.75565488  0.35764831    -0.00400
Br1190     Br  0.22788398  0.77040519  0.40025146    -0.00400
Br1191     Br  0.15590630  0.71701612  0.37943923    -0.00400
Br1192     Br  0.16475567  0.72602513  0.42332291    -0.00400
C1193       C  0.25098455  0.73917683  0.30773605    -0.01500
C1194       C  0.24029550  0.72708140  0.31893787     0.08200
C1195       C  0.24939873  0.71482180  0.33110565    -0.01600
C1196       C  0.26880646  0.71454559  0.33189665    -0.01600
C1197       C  0.27945011  0.72654105  0.32060786     0.08300
C1198       C  0.27040643  0.73901942  0.30870209    -0.01800
Br1199     Br  0.28452260  0.75533462  0.29277352    -0.00400
Br1200     Br  0.23933571  0.75520995  0.28990792    -0.00400
Br1201     Br  0.28064881  0.69823996  0.34937724    -0.00400
Br1202     Br  0.23555508  0.69877469  0.34756964    -0.00400
C1203       C  0.32646701  0.71568200  0.23569939    -0.01500
C1204       C  0.33980917  0.72753321  0.22771064     0.08200
C1205       C  0.35276007  0.73656706  0.23902932    -0.01600
C1206       C  0.35182916  0.73471945  0.25828027    -0.01600
C1207       C  0.33787980  0.72368888  0.26641549     0.08300
C1208       C  0.32552484  0.71369761  0.25506954    -0.01800
Br1209     Br  0.30654799  0.69828756  0.26594943    -0.00400
Br1210     Br  0.30881132  0.70305110  0.22020959    -0.00400
Br1211     Br  0.37021897  0.74700988  0.27333422    -0.00400
Br1212     Br  0.37227634  0.75109097  0.22822468    -0.00400
C1213       C  0.20016952  0.70923432  0.23399583    -0.01500
C1214       C  0.18639797  0.71806011  0.22355619     0.08200
C1215       C  0.17144880  0.72655545  0.23262036    -0.01600
C1216       C  0.17104998  0.72776306  0.25193978    -0.01600
C1217       C  0.18518929  0.71966699  0.26237839     0.08300
C1218       C  0.19946011  0.70989836  0.25345323    -0.01800
Br1219     Br  0.21871963  0.69866345  0.26784808    -0.00400
Br1220     Br  0.22053818  0.69720609  0.22174529    -0.00400
Br1221     Br  0.15100189  0.74054902  0.26400229    -0.00400
Br1222     Br  0.15094399  0.73572496  0.21868518    -0.00400
C1223       C  0.27395211  0.73406163  0.18800051    -0.01500
C1224       C  0.28510570  0.72480137  0.17481765     0.08200
C1225       C  0.27684395  0.71170928  0.16281647    -0.01600
C1226       C  0.25752496  0.70955449  0.16259305    -0.01600
C1227       C  0.24630205  0.72079560  0.17400092     0.08300
C1228       C  0.25468410  0.73229304  0.18740294    -0.01800
Br1229     Br  0.23992696  0.74521714  0.20567538    -0.00400
Br1230     Br  0.28484208  0.74857271  0.20774795    -0.00400
Br1231     Br  0.24679916  0.69155821  0.14604905    -0.00400
Br1232     Br  0.29149871  0.69709812  0.14595853    -0.00400
C1233       C  0.20250448  0.74964782  0.08576505    -0.01500
C1234       C  0.21361281  0.73645397  0.07624925     0.08200
C1235       C  0.21747678  0.71961174  0.08540946    -0.01600
C1236       C  0.21015794  0.71585248  0.10325367    -0.01600
C1237       C  0.20051189  0.72971090  0.11331244     0.08300
C1238       C  0.19671948  0.74665351  0.10423097    -0.01800
Br1239     Br  0.18161468  0.76534319  0.11611567    -0.00400
Br1240     Br  0.19335015  0.77146449  0.07325037    -0.00400
Br1241     Br  0.21209495  0.69090023  0.11270683    -0.00400
Br1242     Br  0.23138146  0.70064658  0.07299490    -0.00400
C1243       C  0.28289399  0.73506630  0.04143390    -0.01500
C1244       C  0.28784100  0.75219907  0.04966304     0.08200
C1245       C  0.27390896  0.76235372  0.05867656    -0.01600
C1246       C  0.25520701  0.75735338  0.05643204    -0.01600
C1247       C  0.25011596  0.73992441  0.04879805     0.08300
C1248       C  0.26454477  0.72826080  0.04251420    -0.01800
Br1249     Br  0.25951941  0.70315581  0.03470086    -0.00400
Br1250     Br  0.30091538  0.72108732  0.02781798    -0.00400
Br1251     Br  0.23735263  0.77656818  0.05979117    -0.00400
Br1252     Br  0.28000329  0.78346376  0.07376749    -0.00400
C1253       C  0.32642843  0.73469408  0.10634976    -0.01500
C1254       C  0.33139918  0.74941084  0.11852806     0.08200
C1255       C  0.33046321  0.76781796  0.11158019    -0.01600
C1256       C  0.32491832  0.77129644  0.09315552    -0.01600
C1257       C  0.32010525  0.75660173  0.08097055     0.08300
C1258       C  0.32088800  0.73831157  0.08789458    -0.01800
Br1259     Br  0.31584025  0.71775209  0.07178557    -0.00400
Br1260     Br  0.32741947  0.70912901  0.11426301    -0.00400
Br1261     Br  0.32520642  0.79663960  0.08423660    -0.00400
Br1262     Br  0.33832477  0.78876178  0.12645366    -0.00400
C1263       C  0.23080982  0.70639070  0.98305830    -0.01500
C1264       C  0.24780154  0.71299389  0.97581255     0.08200
C1265       C  0.25718826  0.72691399  0.98574036    -0.01600
C1266       C  0.24855982  0.73566924  0.00099892    -0.01600
C1267       C  0.23308717  0.72736500  0.00955799     0.08300
C1268       C  0.22494203  0.71180614  0.00076627    -0.01800
Br1269     Br  0.20661596  0.69663880  0.01319850    -0.00400
Br1270     Br  0.21450344  0.69089817  0.96849957    -0.00400
Br1271     Br  0.25634742  0.75992412  0.00830401    -0.00400
Br1272     Br  0.28245013  0.73210388  0.98018569    -0.00400
C1273       C  0.27675923  0.67985454  0.90345041    -0.01500
C1274       C  0.26468638  0.69389224  0.91015171     0.08200
C1275       C  0.25225391  0.70199284  0.89757898    -0.01600
C1276       C  0.25125310  0.69557936  0.87910145    -0.01600
C1277       C  0.26221584  0.68051430  0.87302543     0.08300
C1278       C  0.27527198  0.67303119  0.88523855    -0.01800
Br1279     Br  0.29025649  0.65222012  0.87764219    -0.00400
Br1280     Br  0.29512420  0.66894907  0.91944055    -0.00400
Br1281     Br  0.23499773  0.70799364  0.86207200    -0.00400
Br1282     Br  0.23533190  0.72081660  0.90558986    -0.00400
C1283       C  0.29335536  0.78577564  0.01028167    -0.01500
C1284       C  0.30536771  0.77065705  0.01292746     0.08200
C1285       C  0.31336918  0.76258047  0.99689751    -0.01600
C1286       C  0.30892397  0.76899276  0.97890499    -0.01600
C1287       C  0.29547928  0.78286627  0.97620512     0.08300
C1288       C  0.28776252  0.79117868  0.99230009    -0.01800
Br1289     Br  0.27028344  0.81120981  0.99003579    -0.00400
Br1290     Br  0.28684659  0.80132500  0.03087894    -0.00400
Br1291     Br  0.32347106  0.76035599  0.95843319    -0.00400
Br1292     Br  0.33220496  0.74384822  0.99942716    -0.00400
C1293       C  0.28862485  0.75356768  0.92852417    -0.01500
C1294       C  0.27904047  0.76759283  0.93803359     0.08200
C1295       C  0.26175619  0.76306791  0.94597324    -0.01600
C1296       C  0.25435216  0.74494943  0.94431400    -0.01600
C1297       C  0.26561511  0.73009311  0.93824634     0.08300
C1298       C  0.28304794  0.73479494  0.93036032    -0.01800
Br1299     Br  0.30114538  0.71626431  0.92490494    -0.00400
Br1300     Br  0.30974340  0.75991465  0.91347758    -0.00400
Br1301     Br  0.22848003  0.74113187  0.94935188    -0.00400
Br1302     Br  0.24778176  0.78178479  0.95875276    -0.00400
C1303       C  0.26997986  0.79898599  0.89854926    -0.01500
C1304       C  0.28710496  0.80125566  0.90758682     0.08200
C1305       C  0.30181582  0.80913309  0.89702264    -0.01600
C1306       C  0.29899164  0.81615137  0.87892796    -0.01600
C1307       C  0.28200883  0.81346306  0.86975605     0.08300
C1308       C  0.26772508  0.80414062  0.87970002    -0.01800
Br1309     Br  0.24482557  0.79762914  0.86768660    -0.00400
Br1310     Br  0.24882243  0.79013102  0.91188396    -0.00400
Br1311     Br  0.31807337  0.83117852  0.86763837    -0.00400
Br1312     Br  0.32641345  0.81025062  0.90720281    -0.00400
C1313       C  0.10156438  0.74212132  0.29447223    -0.01500
C1314       C  0.09243238  0.72492177  0.29222427     0.08200
C1315       C  0.10140331  0.70885609  0.29899407    -0.01600
C1316       C  0.11988516  0.70959496  0.30522771    -0.01600
C1317       C  0.12927722  0.72691698  0.30732573     0.08300
C1318       C  0.11954215  0.74323461  0.30209182    -0.01800
Br1319     Br  0.12987495  0.76778095  0.30582317    -0.00400
Br1320     Br  0.08820547  0.76471508  0.29005421    -0.00400
Br1321     Br  0.13163775  0.68610854  0.31049906    -0.00400
Br1322     Br  0.08781108  0.68584687  0.30231091    -0.00400
C1323       C  0.06049129  0.74471469  0.22331678    -0.01500
C1324       C  0.06690913  0.72842857  0.21449582     0.08200
C1325       C  0.07560195  0.71509324  0.22564298    -0.01600
C1326       C  0.07390447  0.71587304  0.24515290    -0.01600
C1327       C  0.06708646  0.73196978  0.25427145     0.08300
C1328       C  0.06211272  0.74707949  0.24276662    -0.01800
Br1329     Br  0.05822387  0.77135443  0.25315817    -0.00400
Br1330     Br  0.04952278  0.76400472  0.20876939    -0.00400
Br1331     Br  0.07793192  0.69320899  0.25818057    -0.00400
Br1332     Br  0.08999681  0.69560836  0.21464534    -0.00400
C1333       C  0.12407655  0.71043777  0.16775373    -0.01500
C1334       C  0.13528938  0.72638569  0.17080883     0.08200
C1335       C  0.12666206  0.74258215  0.17822962    -0.01600
C1336       C  0.10776052  0.74234718  0.18325990    -0.01600
C1337       C  0.09693003  0.72633797  0.18065026     0.08300
C1338       C  0.10518177  0.71053220  0.17248164    -0.01800
Br1339     Br  0.09013121  0.68899697  0.16651972    -0.00400
Br1340     Br  0.13359476  0.68847764  0.15559454    -0.00400
Br1341     Br  0.09621574  0.76456318  0.19247895    -0.00400
Br1342     Br  0.13989027  0.76579630  0.18132238    -0.00400
C1343       C  0.00647330  0.75100414  0.24883455    -0.01500
C1344       C  0.99894432  0.76590437  0.25885683     0.08200
C1345       C  0.00691293  0.77037711  0.27617581    -0.01600
C1346       C  0.02254564  0.76073739  0.28251604    -0.01600
C1347       C  0.02904654  0.74488017  0.27292926     0.08300
C1348       C  0.01998149  0.73946026  0.25669928    -0.01800
Br1349     Br  0.02479043  0.71546503  0.24648335    -0.00400
Br1350     Br  0.00060998  0.74842609  0.22347236    -0.00400
Br1351     Br  0.03554043  0.77009822  0.30389291    -0.00400
Br1352     Br  0.99626249  0.78931036  0.29183067    -0.00400
C1353       C  0.99513869  0.71990791  0.19004043    -0.01500
C1354       C  0.99210480  0.70496261  0.20226100     0.08200
C1355       C  0.00776010  0.69530327  0.20870059    -0.01600
C1356       C  0.02577179  0.70097898  0.20349656    -0.01600
C1357       C  0.02873180  0.71785005  0.19400199     0.08300
C1358       C  0.01302250  0.72726077  0.18727651    -0.01800
Br1359     Br  0.01562267  0.75040827  0.17393440    -0.00400
Br1360     Br  0.97575613  0.72840733  0.17431846    -0.00400
Br1361     Br  0.04554670  0.68364788  0.20628835    -0.00400
Br1362     Br  0.00463784  0.67292842  0.22313748    -0.00400
C1363       C  0.96331619  0.72078694  0.24202243    -0.01500
C1364       C  0.95610835  0.71848985  0.22398645     0.08200
C1365       C  0.94936446  0.73450426  0.21520853    -0.01600
C1366       C  0.95354818  0.75231167  0.22220392    -0.01600
C1367       C  0.95983766  0.75475001  0.24057199     0.08300
C1368       C  0.96312057  0.73842329  0.25091224    -0.01800
Br1369     Br  0.96774706  0.73996333  0.27704027    -0.00400
Br1370     Br  0.97526852  0.70057384  0.25408610    -0.00400
Br1371     Br  0.95547228  0.77194556  0.20445520    -0.00400
Br1372     Br  0.93425896  0.73272082  0.19364887    -0.00400
C1373       C  0.56565788  0.72676719  0.24335156    -0.01500
C1374       C  0.57194784  0.72680017  0.26178311     0.08200
C1375       C  0.57892466  0.74376053  0.26896974    -0.01600
C1376       C  0.57774211  0.76046934  0.25868765    -0.01600
C1377       C  0.57209548  0.76011504  0.24000928     0.08300
C1378       C  0.56770713  0.74265699  0.23220633    -0.01800
Br1379     Br  0.56676025  0.73955792  0.20589007    -0.00400
Br1380     Br  0.55266454  0.70589198  0.23312982    -0.00400
Br1381     Br  0.58197294  0.78368163  0.27119020    -0.00400
Br1382     Br  0.58820242  0.74489411  0.29372330    -0.00400
C1383       C  0.50335874  0.69391323  0.27337399    -0.01500
C1384       C  0.49418925  0.71013421  0.27950974     0.08200
C1385       C  0.50488788  0.72626403  0.28279995    -0.01600
C1386       C  0.52438192  0.72571153  0.28159375    -0.01600
C1387       C  0.53343219  0.70943263  0.27575590     0.08300
C1388       C  0.52256169  0.69399411  0.27035414    -0.01800
Br1389     Br  0.53438470  0.67144407  0.26182320    -0.00400
Br1390     Br  0.49073671  0.67020776  0.27298540    -0.00400
Br1391     Br  0.53854723  0.74602604  0.29143622    -0.00400
Br1392     Br  0.49328561  0.74800133  0.29290332    -0.00400
C1393       C  0.41345929  0.70733781  0.29242033    -0.01500
C1394       C  0.42757341  0.71720362  0.30152191     0.08200
C1395       C  0.42274153  0.72787455  0.31738372    -0.01600
C1396       C  0.40410663  0.72977489  0.32299643    -0.01600
C1397       C  0.39002540  0.71996650  0.31377795     0.08300
C1398       C  0.39490394  0.70875236  0.29836398    -0.01800
Br1399     Br  0.37628816  0.69514295  0.28492996    -0.00400
Br1400     Br  0.41974653  0.68974512  0.27338455    -0.00400
Br1401     Br  0.39803180  0.74476392  0.34427582    -0.00400
Br1402     Br  0.44179067  0.73861392  0.33273614    -0.00400
C1403       C  0.50382321  0.77208936  0.23499938    -0.01500
C1404       C  0.49571731  0.76507264  0.21862126     0.08200
C1405       C  0.50765961  0.76036803  0.20382034    -0.01600
C1406       C  0.52648041  0.76546539  0.20420728    -0.01600
C1407       C  0.53470859  0.77211805  0.22070798     0.08300
C1408       C  0.52320465  0.77467020  0.23631754    -0.01800
Br1409     Br  0.53344008  0.78544324  0.25842200    -0.00400
Br1410     Br  0.48856384  0.78130881  0.25461690    -0.00400
Br1411     Br  0.53960362  0.76674891  0.18087383    -0.00400
Br1412     Br  0.49760592  0.74953667  0.18152391    -0.00400
C1413       C  0.46256555  0.72893016  0.23348407    -0.01500
C1414       C  0.45705145  0.74762613  0.23313800     0.08200
C1415       C  0.45008410  0.75543500  0.24972470    -0.01600
C1416       C  0.45044042  0.74534813  0.26654562    -0.01600
C1417       C  0.45572231  0.72647904  0.26671329     0.08300
C1418       C  0.45999889  0.71814426  0.24952926    -0.01800
Br1419     Br  0.46019002  0.69169219  0.24706283    -0.00400
Br1420     Br  0.47575004  0.71817082  0.21312445    -0.00400
Br1421     Br  0.44503863  0.75825408  0.28913797    -0.00400
Br1422     Br  0.44180245  0.78071579  0.25003125    -0.00400
C1423       C  0.42486108  0.74400355  0.18943088    -0.01500
C1424       C  0.42785028  0.75989558  0.20057216     0.08200
C1425       C  0.41321100  0.77279496  0.20189599    -0.01600
C1426       C  0.39601185  0.76952296  0.19319829    -0.01600
C1427       C  0.39240729  0.75254901  0.18360927     0.08300
C1428       C  0.40722696  0.73977483  0.18200449    -0.01800
Br1429     Br  0.40441698  0.71669098  0.16857233    -0.00400
Br1430     Br  0.44560108  0.72991221  0.18083983    -0.00400
Br1431     Br  0.37783299  0.78914926  0.19493719    -0.00400
Br1432     Br  0.41707588  0.79630763  0.21424808    -0.00400
C1433       C  0.90900138  0.80979555  0.23442309    -0.01500
C1434       C  0.89865646  0.80491854  0.25045759     0.08200
C1435       C  0.90824025  0.79591943  0.26504848    -0.01600
C1436       C  0.92678565  0.79013753  0.26269520    -0.01600
C1437       C  0.93641431  0.79331459  0.24597383     0.08300
C1438       C  0.92775585  0.80462502  0.23254218    -0.01800
Br1439     Br  0.94196739  0.81534082  0.21247771    -0.00400
Br1440     Br  0.89842030  0.82533488  0.21545168    -0.00400
Br1441     Br  0.94005742  0.78058404  0.28366400    -0.00400
Br1442     Br  0.89689202  0.79203602  0.28900462    -0.00400
C1443       C  0.63171511  0.68798975  0.29238785    -0.01500
C1444       C  0.63771743  0.67947960  0.27565282     0.08200
C1445       C  0.62528664  0.67915041  0.26052837    -0.01600
C1446       C  0.60750674  0.68701276  0.26224337    -0.01600
C1447       C  0.60223136  0.69697725  0.27825671     0.08300
C1448       C  0.61475357  0.69746797  0.29323916    -0.01800
Br1449     Br  0.60791410  0.70941293  0.31626747    -0.00400
Br1450     Br  0.64525988  0.68552359  0.31534164    -0.00400
Br1451     Br  0.58944628  0.68083615  0.24392596    -0.00400
Br1452     Br  0.63125502  0.66618673  0.23778993    -0.00400
C1453       C  0.90601455  0.66668987  0.23904976    -0.01500
C1454       C  0.89061082  0.66932852  0.22737541     0.08200
C1455       C  0.89338879  0.67954410  0.21078033    -0.01600
C1456       C  0.91118389  0.68577683  0.20558684    -0.01600
C1457       C  0.92628989  0.68434619  0.21782860     0.08300
C1458       C  0.92358739  0.67393497  0.23419863    -0.01800
Br1459     Br  0.94460062  0.66617362  0.24825875    -0.00400
Br1460     Br  0.90380073  0.65190505  0.26124358    -0.00400
Br1461     Br  0.91519996  0.69282082  0.18008989    -0.00400
Br1462     Br  0.87305022  0.68605878  0.19487741    -0.00400
C1463       C  0.85589073  0.72459263  0.25050359    -0.01500
C1464       C  0.83982750  0.71584357  0.24384581     0.08200
C1465       C  0.82468202  0.72655888  0.23815896    -0.01600
C1466       C  0.82554895  0.74601445  0.23938814    -0.01600
C1467       C  0.84154452  0.75470365  0.24626623     0.08300
C1468       C  0.85680152  0.74400509  0.25148585    -0.01800
Br1469     Br  0.87934309  0.75593461  0.25902330    -0.00400
Br1470     Br  0.87693202  0.71007630  0.25784091    -0.00400
Br1471     Br  0.80457305  0.76073442  0.23236208    -0.00400
Br1472     Br  0.80231602  0.71462794  0.22985012    -0.00400
C1473       C  0.77225114  0.64955861  0.24864072    -0.01500
C1474       C  0.78457178  0.66217032  0.25693443     0.08200
C1475       C  0.77803211  0.67582023  0.26929154    -0.01600
C1476       C  0.75901598  0.67722831  0.27283379    -0.01600
C1477       C  0.74668053  0.66472275  0.26427726     0.08300
C1478       C  0.75339403  0.65059197  0.25259755    -0.01800
Br1479     Br  0.73691299  0.63204572  0.24247574    -0.00400
Br1480     Br  0.78114426  0.63062116  0.23191337    -0.00400
Br1481     Br  0.74989797  0.69711247  0.28826074    -0.00400
Br1482     Br  0.79489429  0.69347264  0.28024726    -0.00400
C1483       C  0.63408605  0.78949406  0.22942796    -0.01500
C1484       C  0.63828875  0.80696520  0.23752234     0.08200
C1485       C  0.62353746  0.81808758  0.24367784    -0.01600
C1486       C  0.60501459  0.81232631  0.24088579    -0.01600
C1487       C  0.60078280  0.79504667  0.23221236     0.08300
C1488       C  0.61559165  0.78372527  0.22663032    -0.01800
Br1489     Br  0.61079297  0.76100738  0.21347306    -0.00400
Br1490     Br  0.65367892  0.77288661  0.22238367    -0.00400
Br1491     Br  0.58535789  0.82863291  0.24871770    -0.00400
Br1492     Br  0.62866445  0.84184079  0.25494802    -0.00400
C1493       C  0.68196540  0.75450448  0.27124375    -0.01500
C1494       C  0.69372444  0.76193470  0.25744753     0.08200
C1495       C  0.70678206  0.75038256  0.24862687    -0.01600
C1496       C  0.70744632  0.73143554  0.25296125    -0.01600
C1497       C  0.69529810  0.72394219  0.26627738     0.08300
C1498       C  0.68308716  0.73562846  0.27593678    -0.01800
Br1499     Br  0.66717917  0.72575281  0.29496253    -0.00400
Br1500     Br  0.66304203  0.76954811  0.28263928    -0.00400
Br1501     Br  0.72552046  0.71576613  0.24099591    -0.00400
Br1502     Br  0.72432709  0.76029017  0.23094658    -0.00400
C1503       C  0.75619084  0.80187059  0.26304231    -0.01500
C1504       C  0.74801896  0.81574900  0.25215334     0.08200
C1505       C  0.75927298  0.82835084  0.24239914    -0.01600
C1506       C  0.77857808  0.82664243  0.24278083    -0.01600
C1507       C  0.78691663  0.81249858  0.25338783     0.08300
C1508       C  0.77557757  0.80046336  0.26398851    -0.01800
Br1509     Br  0.78630163  0.78139674  0.27916891    -0.00400
Br1510     Br  0.74075876  0.78401313  0.27569139    -0.00400
Br1511     Br  0.79336633  0.84441307  0.22915421    -0.00400
Br1512     Br  0.74815222  0.84838809  0.22883428    -0.00400
C1513       C  0.71608717  0.58718474  0.28252659    -0.01500
C1514       C  0.70677999  0.57463859  0.27078240     0.08200
C1515       C  0.69285051  0.58164177  0.25906589    -0.01600
C1516       C  0.68808538  0.60060461  0.25939115    -0.01600
C1517       C  0.69679555  0.61295172  0.27182329     0.08300
C1518       C  0.71102584  0.60608741  0.28326527    -0.01800
Br1519     Br  0.72399373  0.62235805  0.30016770    -0.00400
Br1520     Br  0.73528413  0.57864818  0.29846174    -0.00400
Br1521     Br  0.66832296  0.60910772  0.24378344    -0.00400
Br1522     Br  0.67887717  0.56484962  0.24353150    -0.00400
C1523       C  0.76095330  0.54718720  0.23904766    -0.01500
C1524       C  0.77495143  0.54137366  0.25104521     0.08200
C1525       C  0.77031503  0.53735920  0.26967757    -0.01600
C1526       C  0.75189268  0.53844600  0.27583233    -0.01600
C1527       C  0.73750035  0.54259966  0.26343990     0.08300
C1528       C  0.74231419  0.54768556  0.24511172    -0.01800
Br1529     Br  0.72360037  0.55484441  0.22801139    -0.00400
Br1530     Br  0.76755000  0.55347327  0.21405552    -0.00400
Br1531     Br  0.74675858  0.53385582  0.30146287    -0.00400
Br1532     Br  0.78842939  0.52694843  0.28621227    -0.00400
C1533       C  0.81051892  0.58101792  0.26223325    -0.01500
C1534       C  0.81141240  0.56850588  0.24721736     0.08200
C1535       C  0.81970178  0.57478122  0.23057993    -0.01600
C1536       C  0.82753813  0.59281454  0.22919606    -0.01600
C1537       C  0.82689569  0.60525638  0.24434473     0.08300
C1538       C  0.81780148  0.59925816  0.26074787    -0.01800
Br1539     Br  0.81427231  0.61610059  0.28129042    -0.00400
Br1540     Br  0.79951526  0.57326473  0.28520051    -0.00400
Br1541     Br  0.84030336  0.59983707  0.20676845    -0.00400
Br1542     Br  0.82094515  0.55834295  0.20961107    -0.00400
C1543       C  0.71015904  0.47608770  0.25232077    -0.01500
C1544       C  0.71737480  0.46514568  0.26675681     0.08200
C1545       C  0.72294035  0.47416989  0.28310596    -0.01600
C1546       C  0.71962402  0.49322531  0.28561167    -0.01600
C1547       C  0.71515755  0.50463719  0.27039056     0.08300
C1548       C  0.71039537  0.49574540  0.25359393    -0.01800
Br1549     Br  0.70124573  0.51026413  0.23331256    -0.00400
Br1550     Br  0.69747090  0.46443144  0.23206430    -0.00400
Br1551     Br  0.71596474  0.50177939  0.31068149    -0.00400
Br1552     Br  0.73305190  0.46016233  0.30324208    -0.00400
C1553       C  0.76901591  0.48307985  0.21782435    -0.01500
C1554       C  0.78195823  0.47423678  0.20630335     0.08200
C1555       C  0.80019008  0.48125401  0.20608018    -0.01600
C1556       C  0.80475988  0.49753458  0.21588313    -0.01600
C1557       C  0.79256598  0.50488671  0.22950419     0.08300
C1558       C  0.77485217  0.49644623  0.23092673    -0.01800
Br1559     Br  0.75972343  0.49887756  0.25243673    -0.00400
Br1560     Br  0.74312806  0.47839041  0.21477083    -0.00400
Br1561     Br  0.82782587  0.50954747  0.20951928    -0.00400
Br1562     Br  0.81974223  0.46778018  0.19371154    -0.00400
C1563       C  0.76937088  0.43828062  0.23298700    -0.01500
C1564       C  0.76074801  0.43648300  0.21543616     0.08200
C1565       C  0.74181453  0.43175548  0.21494482    -0.01600
C1566       C  0.73187260  0.42867383  0.23137354    -0.01600
C1567       C  0.74006997  0.43214104  0.24872691     0.08300
C1568       C  0.75894525  0.43634084  0.24948186    -0.01800
Br1569     Br  0.77042691  0.43822374  0.27330722    -0.00400
Br1570     Br  0.79541706  0.44314001  0.23490082    -0.00400
Br1571     Br  0.70748937  0.41777595  0.23001714    -0.00400
Br1572     Br  0.72828011  0.43229292  0.19218583    -0.00400
C1573       C  0.76030271  0.15269272  0.23047501    -0.01500
C1574       C  0.76706274  0.16747736  0.21964318     0.08200
C1575       C  0.77731178  0.18190489  0.22781222    -0.01600
C1576       C  0.78068888  0.18166561  0.24691315    -0.01600
C1577       C  0.77363843  0.16700688  0.25786166     0.08300
C1578       C  0.76382448  0.15230274  0.24951838    -0.01800
Br1579     Br  0.75644513  0.13082754  0.26378147    -0.00400
Br1580     Br  0.74668504  0.13260037  0.21916998    -0.00400
Br1581     Br  0.79452245  0.20179420  0.25792715    -0.00400
Br1582     Br  0.78582701  0.20251181  0.21295182    -0.00400
C1583       C  0.75458619  0.37390429  0.28119888    -0.01500
C1584       C  0.74951139  0.36888768  0.29936466     0.08200
C1585       C  0.73876534  0.38113124  0.30981004    -0.01600
C1586       C  0.73216835  0.39765466  0.30181986    -0.01600
C1587       C  0.73417886  0.40100910  0.28242965     0.08300
C1588       C  0.74572586  0.38879273  0.27223996    -0.01800
Br1589     Br  0.74759393  0.38952087  0.24573755    -0.00400
Br1590     Br  0.77329472  0.35997481  0.26823008    -0.00400
Br1591     Br  0.72042057  0.41530028  0.31811232    -0.00400
Br1592     Br  0.73338208  0.37510884  0.33527129    -0.00400
C1593       C  0.78175670  0.23371120  0.32425658    -0.01500
C1594       C  0.77210039  0.22153034  0.31248082     0.08200
C1595       C  0.75929682  0.22854862  0.29969428    -0.01600
C1596       C  0.75638022  0.24774508  0.29848552    -0.01600
C1597       C  0.76569613  0.25989663  0.31057350     0.08300
C1598       C  0.77820865  0.25282271  0.32365208    -0.01800
Br1599     Br  0.78980384  0.26901945  0.34155056    -0.00400
Br1600     Br  0.79954813  0.22425769  0.34159469    -0.00400
Br1601     Br  0.74066349  0.25738599  0.27930234    -0.00400
Br1602     Br  0.74653205  0.21204892  0.28294318    -0.00400
C1603       C  0.75593918  0.38605338  0.15788395    -0.01500
C1604       C  0.76539616  0.37220178  0.16766487     0.08200
C1605       C  0.77545987  0.37737871  0.18360275    -0.01600
C1606       C  0.77650127  0.39616475  0.18932833    -0.01600
C1607       C  0.76748885  0.41025686  0.17929031     0.08300
C1608       C  0.75718964  0.40488163  0.16338271    -0.01800
Br1609     Br  0.74507593  0.42320100  0.14820264    -0.00400
Br1610     Br  0.74214276  0.37937460  0.13605558    -0.00400
Br1611     Br  0.79202010  0.40235845  0.20988504    -0.00400
Br1612     Br  0.78781822  0.35867848  0.19803202    -0.00400
C1613       C  0.74768300  0.25318912  0.17413601    -0.01500
C1614       C  0.75642366  0.26145873  0.15871874     0.08200
C1615       C  0.76396285  0.25021090  0.14471741    -0.01600
C1616       C  0.76350334  0.23080650  0.14642722    -0.01600
C1617       C  0.75543287  0.22252345  0.16219228     0.08300
C1618       C  0.74729200  0.23374160  0.17593154    -0.01800
Br1619     Br  0.73675425  0.22259372  0.19783466    -0.00400
Br1620     Br  0.73692600  0.26847285  0.19325598    -0.00400
Br1621     Br  0.77345500  0.21564632  0.12674225    -0.00400
Br1622     Br  0.77409042  0.26131545  0.12270702    -0.00400
C1623       C  0.77027263  0.30215362  0.22379163    -0.01500
C1624       C  0.75907063  0.31475288  0.21401719     0.08200
C1625       C  0.74714398  0.32663831  0.22391148    -0.01600
C1626       C  0.74595055  0.32546792  0.24327850    -0.01600
C1627       C  0.75805701  0.31382577  0.25307818     0.08300
C1628       C  0.77021655  0.30216647  0.24326242    -0.01800
Br1629     Br  0.78611401  0.28538887  0.25643933    -0.00400
Br1630     Br  0.78497135  0.28401314  0.21072965    -0.00400
Br1631     Br  0.72782057  0.34023905  0.25620648    -0.00400
Br1632     Br  0.73354888  0.34580339  0.21130730    -0.00400
C1633       C  0.74515110  0.09966603  0.17547528    -0.01500
C1634       C  0.76065273  0.11171074  0.17435854     0.08200
C1635       C  0.77799725  0.10482729  0.18037480    -0.01600
C1636       C  0.77990763  0.08613298  0.18601054    -0.01600
C1637       C  0.76449190  0.07424667  0.18702779     0.08300
C1638       C  0.74706034  0.08129812  0.18198120    -0.01800
Br1639     Br  0.72566244  0.06516044  0.18269562    -0.00400
Br1640     Br  0.72117324  0.10740493  0.16694559    -0.00400
Br1641     Br  0.80403917  0.07644091  0.19096818    -0.00400
Br1642     Br  0.79951655  0.12071777  0.18180441    -0.00400
C1643       C  0.79894289  0.03923901  0.24340079    -0.01500
C1644       C  0.78717402  0.04436496  0.25821111     0.08200
C1645       C  0.76982985  0.05198250  0.25396603    -0.01600
C1646       C  0.76410385  0.05374277  0.23533851    -0.01600
C1647       C  0.77451837  0.04563891  0.22088315     0.08300
C1648       C  0.79238567  0.03916069  0.22504041    -0.01800
Br1649     Br  0.80819465  0.03037347  0.20551007    -0.00400
Br1650     Br  0.82394519  0.03168548  0.24819512    -0.00400
Br1651     Br  0.74300557  0.06867723  0.22986066    -0.00400
Br1652     Br  0.75309660  0.05816496  0.27365633    -0.00400
C1653       C  0.78378855  0.07929201  0.30624016    -0.01500
C1654       C  0.79407003  0.07544074  0.28998385     0.08200
C1655       C  0.80168285  0.09028715  0.27989716    -0.01600
C1656       C  0.79934353  0.10874673  0.28606381    -0.01600
C1657       C  0.78969385  0.11257084  0.30277747     0.08300
C1658       C  0.78167058  0.09768836  0.31262328    -0.01800
Br1659     Br  0.76924378  0.10221915  0.33585434    -0.00400
Br1660     Br  0.77365121  0.05907694  0.32064988    -0.00400
Br1661     Br  0.80931818  0.12862136  0.27112446    -0.00400
Br1662     Br  0.81641046  0.08515653  0.25823835    -0.00400
C1663       C  0.73663272  0.98878507  0.22387497    -0.01500
C1664       C  0.74536228  0.97199100  0.21864044     0.08200
C1665       C  0.76101860  0.97315098  0.20698438    -0.01600
C1666       C  0.76819025  0.99056638  0.20138252    -0.01600
C1667       C  0.75885446  0.00720966  0.20585933     0.08300
C1668       C  0.74253120  0.00592786  0.21646344    -0.01800
Br1669     Br  0.72610583  0.02667818  0.21811503    -0.00400
Br1670     Br  0.71533254  0.98851483  0.24008744    -0.00400
Br1671     Br  0.78964046  0.99114348  0.18544175    -0.00400
Br1672     Br  0.77072303  0.95126441  0.19542760    -0.00400
C1673       C  0.71779432  0.89912191  0.24620829    -0.01500
C1674       C  0.72156981  0.90562750  0.22822932     0.08200
C1675       C  0.71688502  0.89400468  0.21311075    -0.01600
C1676       C  0.70792566  0.87671412  0.21584626    -0.01600
C1677       C  0.70402903  0.87009164  0.23398518     0.08300
C1678       C  0.70939269  0.88157293  0.24917140    -0.01800
Br1679     Br  0.70546691  0.87409187  0.27461992    -0.00400
Br1680     Br  0.72283853  0.91470055  0.26713957    -0.00400
Br1681     Br  0.70021481  0.86307921  0.19410118    -0.00400
Br1682     Br  0.72211703  0.90223276  0.18811320    -0.00400
C1683       C  0.80312635  0.97574370  0.29391456    -0.01500
C1684       C  0.80496814  0.96895518  0.27558407     0.08200
C1685       C  0.79862827  0.98011275  0.26097352    -0.01600
C1686       C  0.79180291  0.99804557  0.26464175    -0.01600
C1687       C  0.79419778  0.00611745  0.28214844     0.08300
C1688       C  0.79663493  0.99381352  0.29707208    -0.01800
Br1689     Br  0.79010778  0.00165466  0.32179932    -0.00400
Br1690     Br  0.81054997  0.96106880  0.31494975    -0.00400
Br1691     Br  0.77036215  0.00485151  0.25142221    -0.00400
Br1692     Br  0.80058680  0.97203147  0.23574351    -0.00400
C1693       C  0.78818417  0.92368109  0.23890663    -0.01500
C1694       C  0.79074452  0.93159489  0.25674535     0.08200
C1695       C  0.77486093  0.93847650  0.26576003    -0.01600
C1696       C  0.75867905  0.94197957  0.25574360    -0.01600
C1697       C  0.75594332  0.93369356  0.23827844     0.08300
C1698       C  0.77032495  0.92266431  0.23104431    -0.01800
Br1699     Br  0.76600844  0.90653991  0.21025716    -0.00400
Br1700     Br  0.80860208  0.91698468  0.22338569    -0.00400
Br1701     Br  0.74059884  0.95820723  0.26645598    -0.00400
Br1702     Br  0.77390556  0.94052835  0.29220530    -0.00400
C1703       C  0.81580420  0.88919887  0.27159080    -0.01500
C1704       C  0.82555037  0.90295291  0.26169017     0.08200
C1705       C  0.84059898  0.89749181  0.25029146    -0.01600
C1706       C  0.84549508  0.87866361  0.24856746    -0.01600
C1707       C  0.83574422  0.86495253  0.25847172     0.08300
C1708       C  0.82069055  0.87031279  0.26983738    -0.01800
Br1709     Br  0.80634386  0.85189174  0.28299529    -0.00400
Br1710     Br  0.79711424  0.89627231  0.28920196    -0.00400
Br1711     Br  0.86657272  0.87185204  0.23364828    -0.00400
Br1712     Br  0.85530380  0.91593092  0.23741719    -0.00400
C1713       C  0.77824858  0.30277607  0.09399465    -0.01500
C1714       C  0.76336822  0.31243215  0.10248381     0.08200
C1715       C  0.74816714  0.31715698  0.09129967    -0.01600
C1716       C  0.74671784  0.31040007  0.07298096    -0.01600
C1717       C  0.76067387  0.29900360  0.06512063     0.08300
C1718       C  0.77689469  0.29635867  0.07550240    -0.01800
Br1719     Br  0.79861307  0.28677148  0.06345724    -0.00400
Br1720     Br  0.80138655  0.29918899  0.10668750    -0.00400
Br1721     Br  0.72606022  0.31863091  0.05839475    -0.00400
Br1722     Br  0.73039130  0.33517468  0.09999704    -0.00400
C1723       C  0.73336599  0.23825486  0.04805324    -0.01500
C1724       C  0.74458225  0.22270785  0.04448760     0.08200
C1725       C  0.76328689  0.22608711  0.03990370    -0.01600
C1726       C  0.77050787  0.24451206  0.03915814    -0.01600
C1727       C  0.75869870  0.26008719  0.04088329     0.08300
C1728       C  0.73989857  0.25646997  0.04491370    -0.01800
Br1729     Br  0.72178497  0.27553839  0.04198667    -0.00400
Br1730     Br  0.70824399  0.23496458  0.05586972    -0.00400
Br1731     Br  0.79652816  0.24807032  0.03514483    -0.00400
Br1732     Br  0.77892745  0.20570105  0.03348687    -0.00400
C1733       C  0.75602387  0.17078918  0.09641308    -0.01500
C1734       C  0.74509128  0.17539030  0.11194336     0.08200
C1735       C  0.72992952  0.18739316  0.10938540    -0.01600
C1736       C  0.72530684  0.19381760  0.09159549    -0.01600
C1737       C  0.73674238  0.19014005  0.07606261     0.08300
C1738       C  0.75170147  0.17782592  0.07866475    -0.01800
Br1739     Br  0.76412656  0.16739932  0.05755205    -0.00400
Br1740     Br  0.77605345  0.15346492  0.09903499    -0.00400
Br1741     Br  0.70135546  0.20475344  0.08867538    -0.00400
Br1742     Br  0.71527006  0.19584647  0.13020456    -0.00400
C1743       C  0.80412791  0.27053454  0.98110071    -0.01500
C1744       C  0.79706171  0.25345765  0.97423336     0.08200
C1745       C  0.78044273  0.24667329  0.98202031    -0.01600
C1746       C  0.77025138  0.25768918  0.99450537    -0.01600
C1747       C  0.77830491  0.27323673  0.00294373     0.08300
C1748       C  0.79564697  0.27943529  0.99628838    -0.01800
Br1749     Br  0.80837409  0.29984791  0.00817882    -0.00400
Br1750     Br  0.82514582  0.28251113  0.96959061    -0.00400
Br1751     Br  0.74453331  0.25324693  0.99782774    -0.00400
Br1752     Br  0.77295502  0.22140903  0.97883386    -0.00400
C1753       C  0.83122537  0.22174602  0.90273847    -0.01500
C1754       C  0.82342979  0.23687504  0.91248016     0.08200
C1755       C  0.82370804  0.25439269  0.90379100    -0.01600
C1756       C  0.82966727  0.25646353  0.88520274    -0.01600
C1757       C  0.83580172  0.24087866  0.87470507     0.08300
C1758       C  0.83675492  0.22348310  0.88397350    -0.01800
Br1759     Br  0.84674078  0.20171884  0.87184856    -0.00400
Br1760     Br  0.83651113  0.19894028  0.91552029    -0.00400
Br1761     Br  0.82964914  0.28128832  0.87503032    -0.00400
Br1762     Br  0.81866602  0.27628389  0.91831970    -0.00400
C1763       C  0.72091071  0.21693002  0.97826549    -0.01500
C1764       C  0.72927788  0.20285157  0.96759861     0.08200
C1765       C  0.73752954  0.18796445  0.97719842    -0.01600
C1766       C  0.74001780  0.18881195  0.99656414    -0.01600
C1767       C  0.73091838  0.20244163  0.00729863     0.08300
C1768       C  0.72030744  0.21571102  0.99778568    -0.01800
Br1769     Br  0.70225826  0.23022271  0.01073027    -0.00400
Br1770     Br  0.70732903  0.23630231  0.96617054    -0.00400
Br1771     Br  0.75354280  0.16930980  0.00859182    -0.00400
Br1772     Br  0.74130467  0.16441190  0.96521751    -0.00400
C1773       C  0.77029745  0.24527634  0.93411774    -0.01500
C1774       C  0.78529307  0.23305465  0.93634388     0.08200
C1775       C  0.78179579  0.21376158  0.93548855    -0.01600
C1776       C  0.76398234  0.20690841  0.93193855    -0.01600
C1777       C  0.74872280  0.21893857  0.93130901     0.08300
C1778       C  0.75214061  0.23826762  0.93156254    -0.01800
Br1779     Br  0.73215337  0.25523926  0.92837019    -0.00400
Br1780     Br  0.77428868  0.27155988  0.93628253    -0.00400
Br1781     Br  0.76086169  0.18076345  0.92758136    -0.00400
Br1782     Br  0.80002378  0.19641651  0.94387402    -0.00400
C1783       C  0.72456064  0.21224749  0.88504691    -0.01500
C1784       C  0.71516675  0.21828431  0.90105307     0.08200
C1785       C  0.69976031  0.23014843  0.89879590    -0.01600
C1786       C  0.69369942  0.23541235  0.88097932    -0.01600
C1787       C  0.70278926  0.22874583  0.86502182     0.08300
C1788       C  0.71877872  0.21778830  0.86728891    -0.01800
Br1789     Br  0.73349396  0.21055468  0.84612692    -0.00400
Br1790     Br  0.74424575  0.19472404  0.88689199    -0.00400
Br1791     Br  0.67207433  0.25069204  0.87856101    -0.00400
Br1792     Br  0.68579694  0.23813156  0.92014284    -0.00400
C1793       C  0.80532620  0.21921912  0.59283913    -0.01500
C1794       C  0.81628682  0.22542463  0.57794808     0.08200
C1795       C  0.83298214  0.23506224  0.58191448    -0.01600
C1796       C  0.83869798  0.23802675  0.60034357    -0.01600
C1797       C  0.82817711  0.23097382  0.61518031     0.08300
C1798       C  0.81123739  0.22187064  0.61129196    -0.01800
Br1799     Br  0.79584258  0.21287429  0.63118986    -0.00400
Br1800     Br  0.78287260  0.20574200  0.58799593    -0.00400
Br1801     Br  0.86177725  0.25053264  0.60519568    -0.00400
Br1802     Br  0.84860721  0.24382993  0.56196265    -0.00400
C1803       C  0.76466308  0.25928171  0.55420610    -0.01500
C1804       C  0.74898760  0.25187237  0.54518910     0.08200
C1805       C  0.75007078  0.23352714  0.53846198    -0.01600
C1806       C  0.76576820  0.22270288  0.54194055    -0.01600
C1807       C  0.78247463  0.23095530  0.54784341     0.08300
C1808       C  0.78167203  0.24963513  0.55397554    -0.01800
Br1809     Br  0.80362810  0.26336028  0.55986790    -0.00400
Br1810     Br  0.76362517  0.28347896  0.56528570    -0.00400
Br1811     Br  0.76298114  0.19625335  0.54141604    -0.00400
Br1812     Br  0.73076793  0.22284948  0.52368757    -0.00400
C1813       C  0.71578354  0.28459572  0.58477564    -0.01500
C1814       C  0.71734870  0.26859977  0.57343926     0.08200
C1815       C  0.70992551  0.25175730  0.58018722    -0.01600
C1816       C  0.70184344  0.25062398  0.59807001    -0.01600
C1817       C  0.70025002  0.26668798  0.60946627     0.08300
C1818       C  0.70678653  0.28386004  0.60212134    -0.01800
Br1819     Br  0.70230508  0.30736896  0.61447208    -0.00400
Br1820     Br  0.72490999  0.30841661  0.57603662    -0.00400
Br1821     Br  0.69209721  0.22682198  0.60586059    -0.00400
Br1822     Br  0.70876624  0.23045588  0.56425687    -0.00400
C1823       C  0.72374742  0.26410236  0.47367762    -0.01500
C1824       C  0.74088079  0.27023529  0.46643637     0.08200
C1825       C  0.75553224  0.27352088  0.47884007    -0.01600
C1826       C  0.75269366  0.27190816  0.49817920    -0.01600
C1827       C  0.73562519  0.26552354  0.50526422     0.08300
C1828       C  0.72179244  0.26007862  0.49259118    -0.01800
Br1829     Br  0.69845363  0.25022697  0.50149386    -0.00400
Br1830     Br  0.70146514  0.26567746  0.45913039    -0.00400
Br1831     Br  0.77092224  0.28186043  0.51467340    -0.00400
Br1832     Br  0.77805929  0.28453297  0.46963091    -0.00400
C1833       C  0.74645797  0.28204854  0.38641307    -0.01500
C1834       C  0.75500270  0.29197956  0.40078481     0.08200
C1835       C  0.76472081  0.30861038  0.39623429    -0.01600
C1836       C  0.76548295  0.31521870  0.37779824    -0.01600
C1837       C  0.75641212  0.30548720  0.36356304     0.08300
C1838       C  0.74722969  0.28859932  0.36802599    -0.01800
Br1839     Br  0.73521869  0.27402178  0.34915563    -0.00400
Br1840     Br  0.73161077  0.26058587  0.39208947    -0.00400
Br1841     Br  0.77735769  0.33862878  0.37239032    -0.00400
Br1842     Br  0.77602373  0.32329437  0.41555710    -0.00400
C1843       C  0.79860614  0.22369848  0.48053258    -0.01500
C1844       C  0.79322285  0.20655017  0.47268848     0.08200
C1845       C  0.78810293  0.19195329  0.48479104    -0.01600
C1846       C  0.79179079  0.19325344  0.50382711    -0.01600
C1847       C  0.79717652  0.21041256  0.51179107     0.08300
C1848       C  0.79980941  0.22581156  0.49999203    -0.01800
Br1849     Br  0.80897905  0.24877394  0.51015653    -0.00400
Br1850     Br  0.80729711  0.24342302  0.46494695    -0.00400
Br1851     Br  0.79293424  0.17038976  0.51783333    -0.00400
Br1852     Br  0.77830223  0.16890840  0.47495403    -0.00400
C1853       C  0.78848132  0.23789866  0.42416266    -0.01500
C1854       C  0.78047384  0.22214414  0.43284216     0.08200
C1855       C  0.76215992  0.22362776  0.43913064    -0.01600
C1856       C  0.75185123  0.23962834  0.43527223    -0.01600
C1857       C  0.76053182  0.25640309  0.42980666     0.08300
C1858       C  0.77922884  0.25525544  0.42418480    -0.01800
Br1859     Br  0.79321132  0.27720831  0.41843816    -0.00400
Br1860     Br  0.81301749  0.23654470  0.41423601    -0.00400
Br1861     Br  0.72568080  0.23681953  0.43399565    -0.00400
Br1862     Br  0.75097945  0.20472406  0.45426393    -0.00400
C1863       C  0.77769468  0.18187465  0.39886541    -0.01500
C1864       C  0.79462739  0.18993112  0.40424228     0.08200
C1865       C  0.80950658  0.18926140  0.39150214    -0.01600
C1866       C  0.80724544  0.18181022  0.37355526    -0.01600
C1867       C  0.78977051  0.17491896  0.36758206     0.08300
C1868       C  0.77505824  0.17487118  0.38071231    -0.01800
Br1869     Br  0.75127126  0.16406995  0.37496757    -0.00400
Br1870     Br  0.75890229  0.17747229  0.41718927    -0.00400
Br1871     Br  0.82919787  0.18052606  0.35813277    -0.00400
Br1872     Br  0.83400295  0.19696724  0.39911488    -0.00400
loop_ 
_geom_bond_atom_site_label_1 
_geom_bond_atom_site_label_2 
_geom_bond_distance 
_geom_bond_site_symmetry_2 
_ccdc_geom_bond_type 
N1            C5   1.375       .  A
N1            C2   1.380       .  A
N1         C1854   1.460       .  S
C2            C3   1.380       .  A
C2         C1864   1.504       .  S
C3            C4   1.359       .  A
C3            H6   1.085       .  S
C4            C5   1.382       .  A
C4            H7   1.085       .  S
C5         C1844   1.503       .  S
N8           C12   1.376       .  A
N8            C9   1.384       .  A
N8         C1857   1.470       .  S
C9           C10   1.382       .  A
C9         C1834   1.502       .  S
C10          C11   1.358       .  A
C10          H13   1.086       .  S
C11          C12   1.377       .  A
C11          H14   1.084       .  S
C12        C1824   1.493       .  S
N15          C19   1.374       .  A
N15          C16   1.381       .  A
N15        C1804   1.460       .  S
C16          C17   1.382       .  A
C16        C1814   1.505       .  S
C17          C18   1.357       .  A
C17          H20   1.085       .  S
C18          C19   1.380       .  A
C18          H21   1.084       .  S
C19        C1827   1.498       .  S
N22          C26   1.378       .  A
N22          C23   1.382       .  A
N22        C1807   1.468       .  S
C23          C24   1.382       .  A
C23        C1794   1.501       .  S
C24          C25   1.360       .  A
C24          H27   1.086       .  S
C25          C26   1.378       .  A
C25          H28   1.084       .  S
C26        C1847   1.499       .  S
N29          C33   1.376       .  A
N29          C30   1.376       .  A
N29        C1777   1.458       .  S
C30          C31   1.382       .  A
C30        C1784   1.503       .  S
C31          C32   1.368       .  A
C31          H34   1.084       .  S
C32          C33   1.379       .  A
C32          H35   1.084       .  S
C33        C1764   1.502       .  S
N36          C40   1.372       .  A
N36          C37   1.376       .  A
N36        C1774   1.456       .  S
C37          C38   1.381       .  A
C37        C1754   1.508       .  S
C38          C39   1.372       .  A
C38          H41   1.082       .  S
C39          C40   1.384       .  A
C39          H42   1.082       .  S
C40        C1744   1.509       .  S
N43          C47   1.377       .  A
N43          C44   1.384       .  A
N43        C1724   1.465       .  S
C44          C45   1.380       .  A
C44        C1737   1.505       .  S
C45          C46   1.363       .  A
C45          H48   1.085       .  S
C46          C47   1.380       .  A
C46          H49   1.083       .  S
C47        C1767   1.502       .  S
N50          C54   1.376       .  A
N50          C51   1.382       .  A
N50        C1727   1.470       .  S
C51          C52   1.381       .  A
C51        C1717   1.507       .  S
C52          C53   1.363       .  A
C52          H55   1.082       .  S
C53          C54   1.380       .  A
C53          H56   1.080       .  S
C54        C1747   1.500       .  S
N57          C61   1.378       .  A
N57          C58   1.379       .  A
N57        C1694   1.468       .  S
C58          C59   1.381       .  A
C58        C1704   1.495       .  S
C59          C60   1.358       .  A
C59          H62   1.085       .  S
C60          C61   1.378       .  A
C60          H63   1.085       .  S
C61        C1684   1.494       .  S
N64          C68   1.377       .  A
N64          C65   1.379       .  A
N64        C1697   1.459       .  S
C65          C66   1.382       .  A
C65        C1674   1.505       .  S
C66          C67   1.361       .  A
C66          H69   1.083       .  S
C67          C68   1.380       .  A
C67          H70   1.083       .  S
C68        C1664   1.504       .  S
N71          C75   1.377       .  A
N71          C72   1.371       .  A
N71        C1644   1.456       .  S
C72          C73   1.375       .  A
C72        C1654   1.490       .  S
C73          C74   1.359       .  A
C73          H76   1.083       .  S
C74          C75   1.389       .  A
C74          H77   1.082       .  S
C75        C1687   1.516       .  S
N78          C82   1.374       .  A
N78          C79   1.374       .  A
N78        C1647   1.460       .  S
C79          C80   1.383       .  A
C79        C1637   1.496       .  S
C80          C81   1.365       .  A
C80          H83   1.083       .  S
C81          C82   1.379       .  A
C81          H84   1.083       .  S
C82        C1667   1.500       .  S
O85          V93   1.907       .  S
O85          C95   1.265       .  A
O86          V93   1.895       .  S
O86          C96   1.263       .  A
O87          V93   1.904       .  S
O87          C97   1.265       .  A
O88          V93   1.911       .  S
O88          C98   1.267       .  A
O89          V94   1.910       .  S
O89          C98   1.267       .  A
O90          V94   1.896       .  S
O90          C97   1.262       .  A
O91          V94   1.898       .  S
O91          C96   1.265       .  A
O92          V94   1.909       .  S
O92          C95   1.268       .  A
V93          V94   2.083       .  T
C95        C1714   1.512       .  S
C96        C1624   1.481       .  S
C97        C1614   1.474       .  S
C98        C1604   1.500       .  S
O99         V107   1.901       .  S
O99         C109   1.264       .  A
O100        V107   1.892       .  S
O100        C110   1.261       .  A
O101        V107   1.895       .  S
O101        C111   1.264       .  A
O102        V107   1.906       .  S
O102        C112   1.267       .  A
O103        V108   1.907       .  S
O103        C112   1.264       .  A
O104        V108   1.886       .  S
O104        C111   1.260       .  A
O105        V108   1.907       .  S
O105        C110   1.267       .  A
O106        V108   1.922       .  S
O106        C109   1.271       .  A
V107        V108   2.086       .  T
C109       C1837   1.502       .  S
C110       C1627   1.479       .  S
C111       C1597   1.469       .  S
C112       C1584   1.487       .  S
O113        V121   1.907       .  S
O113        C123   1.266       .  A
O114        V121   1.893       .  S
O114        C124   1.263       .  A
O115        V121   1.899       .  S
O115        C125   1.264       .  A
O116        V121   1.909       .  S
O116        C126   1.266       .  A
O117        V122   1.903       .  S
O117        C126   1.266       .  A
O118        V122   1.889       .  S
O118        C125   1.261       .  A
O119        V122   1.903       .  S
O119        C124   1.265       .  A
O120        V122   1.907       .  S
O120        C123   1.267       .  A
V121        V122   2.081       .  T
C123       C1634   1.510       .  S
C124       C1617   1.474       .  S
C125       C1574   1.465       .  S
C126       C1734   1.501       .  S
O127        V135   1.908       .  S
O127        C137   1.267       .  A
O128        V135   1.893       .  S
O128        C138   1.262       .  A
O129        V135   1.898       .  S
O129        C139   1.265       .  A
O130        V135   1.916       .  S
O130        C140   1.268       .  A
O131        V136   1.893       .  S
O131        C140   1.262       .  A
O132        V136   1.887       .  S
O132        C139   1.260       .  A
O133        V136   1.894       .  S
O133        C138   1.263       .  A
O134        V136   1.903       .  S
O134        C137   1.265       .  A
V135        V136   2.083       .  T
C137       C1657   1.495       .  S
C138       C1594   1.468       .  S
C139       C1577   1.470       .  S
C140       C1867   1.519       .  S
N141        C145   1.374       .  A
N141        C142   1.380       .  A
N141       C1564   1.457       .  S
C142        C143   1.382       .  A
C142       C1607   1.514       .  S
C143        C144   1.366       .  A
C143        H146   1.082       .  S
C144        C145   1.381       .  A
C144        H147   1.083       .  S
C145       C1554   1.505       .  S
N148        C152   1.366       .  A
N148        C149   1.372       .  A
N148       C1567   1.446       .  S
C149        C150   1.388       .  A
C149       C1587   1.517       .  S
C150        C151   1.373       .  A
C150        H153   1.081       .  S
C151        C152   1.379       .  A
C151        H154   1.080       .  S
C152       C1544   1.499       .  S
N155        C159   1.376       .  A
N155        C156   1.374       .  A
N155       C1524   1.452       .  S
C156        C157   1.379       .  A
C156       C1534   1.510       .  S
C157        C158   1.371       .  A
C157        H160   1.082       .  S
C158        C159   1.387       .  A
C158        H161   1.081       .  S
C159       C1557   1.522       .  S
N162        C166   1.378       .  A
N162        C163   1.374       .  A
N162       C1527   1.460       .  S
C163        C164   1.383       .  A
C163       C1514   1.497       .  S
C164        C165   1.363       .  A
C164        H167   1.083       .  S
C165        C166   1.378       .  A
C165        H168   1.085       .  S
C166       C1547   1.498       .  S
O169        V177   1.912       .  S
O169        C179   1.267       .  A
O170        V177   1.896       .  S
O170        C180   1.262       .  A
O171        V177   1.894       .  S
O171        C181   1.264       .  A
O172        V177   1.907       .  S
O172        C182   1.266       .  A
O173        V178   1.905       .  S
O173        C182   1.265       .  A
O174        V178   1.890       .  S
O174        C181   1.262       .  A
O175        V178   1.913       .  S
O175        C180   1.267       .  A
O176        V178   1.925       .  S
O176        C179   1.270       .  A
V177        V178   2.082       .  T
C179       C1484   1.509       .  S
C180       C1504   1.480       .  S
C181       C1494   1.475       .  S
C182       C1677   1.519       .  S
O183        V191   1.907       .  S
O183        C193   1.267       .  A
O184        V191   1.887       .  S
O184        C194   1.262       .  A
O185        V191   1.899       .  S
O185        C195   1.264       .  A
O186        V191   1.913       .  S
O186        C196   1.268       .  A
O187        V192   1.914       .  S
O187        C196   1.269       .  A
O188        V192   1.891       .  S
O188        C195   1.262       .  A
O189        V192   1.895       .  S
O189        C194   1.263       .  A
O190        V192   1.907       .  S
O190        C193   1.266       .  A
V191        V192   2.082       .  T
C193       C1454   1.512       .  S
C194       C1474   1.464       .  S
C195       C1464   1.468       .  S
C196       C1537   1.512       .  S
O197        V205   1.899       .  S
O197        C207   1.264       .  A
O198        V205   1.882       .  S
O198        C208   1.260       .  A
O199        V205   1.887       .  S
O199        C209   1.262       .  A
O200        V205   1.903       .  S
O200        C210   1.265       .  A
O201        V206   1.895       .  S
O201        C210   1.263       .  A
O202        V206   1.894       .  S
O202        C209   1.262       .  A
O203        V206   1.905       .  S
O203        C208   1.265       .  A
O204        V206   1.908       .  S
O204        C207   1.267       .  A
V205        V206   2.083       .  T
C207       C1517   1.497       .  S
C208       C1497   1.470       .  S
C209       C1477   1.466       .  S
C210       C1444   1.510       .  S
O211        V219   1.918       .  S
O211        C221   1.268       .  A
O212        V219   1.910       .  S
O212        C222   1.267       .  A
O213        V219   1.897       .  S
O213        C223   1.263       .  A
O214        V219   1.903       .  S
O214        C224   1.265       .  A
O215        V220   1.905       .  S
O215        C224   1.266       .  A
O216        V220   1.894       .  S
O216        C223   1.262       .  A
O217        V220   1.898       .  S
O217        C222   1.264       .  A
O218        V220   1.911       .  S
O218        C221   1.267       .  A
V219        V220   2.083       .  T
C221       C1434   1.522       .  S
C222       C1507   1.491       .  S
C223       C1467   1.467       .  S
C224       C1707   1.491       .  S
N225        C229   1.377       .  A
N225        C226   1.384       .  A
N225       C1414   1.458       .  S
C226        C227   1.380       .  A
C226       C1424   1.515       .  S
C227        C228   1.364       .  A
C227        H230   1.083       .  S
C228        C229   1.382       .  A
C228        H231   1.083       .  S
C229       C1404   1.510       .  S
N232        C236   1.376       .  A
N232        C233   1.381       .  A
N232       C1417   1.464       .  S
C233        C234   1.381       .  A
C233       C1394   1.503       .  S
C234        C235   1.363       .  A
C234        H237   1.085       .  S
C235        C236   1.379       .  A
C235        H238   1.084       .  S
C236       C1384   1.501       .  S
N239        C243   1.374       .  A
N239        C240   1.381       .  A
N239       C1374   1.462       .  S
C240        C241   1.381       .  A
C240       C1447   1.502       .  S
C241        C242   1.358       .  A
C241        H244   1.084       .  S
C242        C243   1.380       .  A
C242        H245   1.083       .  S
C243       C1387   1.497       .  S
N246        C250   1.379       .  A
N246        C247   1.383       .  A
N246       C1377   1.464       .  S
C247        C248   1.383       .  A
C247       C1487   1.513       .  S
C248        C249   1.367       .  A
C248        H251   1.082       .  S
C249        C250   1.379       .  A
C249        H252   1.081       .  S
C250       C1407   1.509       .  S
N253        C257   1.379       .  A
N253        C254   1.382       .  A
N253       C1364   1.466       .  S
C254        C255   1.380       .  A
C254       C1457   1.502       .  S
C255        C256   1.361       .  A
C255        H258   1.087       .  S
C256        C257   1.380       .  A
C256        H259   1.085       .  S
C257       C1354   1.500       .  S
N260        C264   1.378       .  A
N260        C261   1.382       .  A
N260       C1367   1.469       .  S
C261        C262   1.381       .  A
C261       C1437   1.510       .  S
C262        C263   1.367       .  A
C262        H265   1.082       .  S
C263        C264   1.382       .  A
C263        H266   1.079       .  S
C264       C1344   1.509       .  S
N267        C271   1.379       .  A
N267        C268   1.377       .  A
N267       C1324   1.466       .  S
C268        C269   1.380       .  A
C268       C1337   1.493       .  S
C269        C270   1.357       .  A
C269        H272   1.087       .  S
C270        C271   1.381       .  A
C270        H273   1.085       .  S
C271       C1357   1.502       .  S
N274        C278   1.379       .  A
N274        C275   1.385       .  A
N274       C1327   1.476       .  S
C275        C276   1.383       .  A
C275       C1314   1.511       .  S
C276        C277   1.363       .  A
C276        H279   1.081       .  S
C277        C278   1.379       .  A
C277        H280   1.082       .  S
C278       C1347   1.501       .  S
N281        C285   1.382       .  A
N281        C282   1.386       .  A
N281       C1294   1.457       .  S
C282        C283   1.385       .  A
C282       C1304   1.527       .  S
C283        C284   1.366       .  A
C283        H286   1.083       .  S
C284        C285   1.379       .  A
C284        H287   1.083       .  S
C285       C1287   1.520       .  S
N288        C292   1.381       .  A
N288        C289   1.381       .  A
N288       C1297   1.469       .  S
C289        C290   1.382       .  A
C289       C1274   1.505       .  S
C290        C291   1.355       .  A
C290        H293   1.082       .  S
C291        C292   1.379       .  A
C291        H294   1.083       .  S
C292       C1264   1.502       .  S
N295        C299   1.381       .  A
N295        C296   1.381       .  A
N295       C1244   1.459       .  S
C296        C297   1.382       .  A
C296       C1257   1.512       .  S
C297        C298   1.365       .  A
C297        H300   1.083       .  S
C298        C299   1.380       .  A
C298        H301   1.083       .  S
C299       C1284   1.513       .  S
N302        C306   1.377       .  A
N302        C303   1.382       .  A
N302       C1247   1.465       .  S
C303        C304   1.381       .  A
C303       C1234   1.510       .  S
C304        C305   1.361       .  A
C304        H307   1.082       .  S
C305        C306   1.381       .  A
C305        H308   1.082       .  S
C306       C1267   1.503       .  S
O309        V317   1.906       .  S
O309        C319   1.267       .  A
O310        V317   1.903       .  S
O310        C320   1.264       .  A
O311        V317   1.903       .  S
O311        C321   1.263       .  A
O312        V317   1.918       .  S
O312        C322   1.269       .  A
O313        V318   1.900       .  S
O313        C322   1.265       .  A
O314        V318   1.896       .  S
O314        C321   1.264       .  A
O315        V318   1.891       .  S
O315        C320   1.263       .  A
O316        V318   1.905       .  S
O316        C319   1.264       .  A
V317        V318   2.079       .  T
C319       C1334   1.514       .  S
C320       C1227   1.484       .  S
C321       C1214   1.473       .  S
C322       C1237   1.511       .  S
O323        V331   1.924       .  S
O323        C333   1.271       .  A
O324        V331   1.903       .  S
O324        C334   1.264       .  A
O325        V331   1.909       .  S
O325        C335   1.266       .  A
O326        V331   1.920       .  S
O326        C336   1.269       .  A
O327        V332   1.901       .  S
O327        C336   1.264       .  A
O328        V332   1.885       .  S
O328        C335   1.262       .  A
O329        V332   1.897       .  S
O329        C334   1.264       .  A
O330        V332   1.902       .  S
O330        C333   1.264       .  A
V331        V332   2.077       .  T
C333       C1254   1.520       .  S
C334       C1204   1.473       .  S
C335       C1224   1.487       .  S
C336       C1427   1.526       .  S
O337        V345   1.912       .  S
O337        C347   1.267       .  A
O338        V345   1.903       .  S
O338        C348   1.266       .  A
O339        V345   1.888       .  S
O339        C349   1.261       .  A
O340        V345   1.902       .  S
O340        C350   1.264       .  A
O341        V346   1.914       .  S
O341        C350   1.267       .  A
O342        V346   1.901       .  S
O342        C349   1.264       .  A
O343        V346   1.901       .  S
O343        C348   1.265       .  A
O344        V346   1.910       .  S
O344        C347   1.267       .  A
V345        V346   2.081       .  T
C347       C1317   1.526       .  S
C348       C1194   1.493       .  S
C349       C1217   1.467       .  S
C350       C1187   1.490       .  S
O351        V359   1.908       .  S
O351        C361   1.265       .  A
O352        V359   1.887       .  S
O352        C362   1.262       .  A
O353        V359   1.906       .  S
O353        C363   1.267       .  A
O354        V359   1.920       .  S
O354        C364   1.270       .  A
O355        V360   1.908       .  S
O355        C364   1.266       .  A
O356        V360   1.897       .  S
O356        C363   1.263       .  A
O357        V360   1.902       .  S
O357        C362   1.264       .  A
O358        V360   1.913       .  S
O358        C361   1.269       .  A
V359        V360   2.085       .  T
C361       C1174   1.492       .  S
C362       C1207   1.474       .  S
C363       C1197   1.489       .  S
C364       C1397   1.504       .  S
N365        C369   1.377       .  A
N365        C366   1.372       .  A
N365       C1154   1.455       .  S
C366        C367   1.375       .  A
C366       C1164   1.491       .  S
C367        C368   1.357       .  A
C367        H370   1.085       .  S
C368        C369   1.388       .  A
C368        H371   1.083       .  S
C369       C1144   1.514       .  S
N372        C376   1.379       .  A
N372        C373   1.377       .  A
N372       C1157   1.460       .  S
C373        C374   1.381       .  A
C373       C1134   1.500       .  S
C374        C375   1.362       .  A
C374        H377   1.083       .  S
C375        C376   1.381       .  A
C375        H378   1.084       .  S
C376       C1124   1.507       .  S
N379        C383   1.368       .  A
N379        C380   1.373       .  A
N379       C1117   1.445       .  S
C380        C381   1.389       .  A
C380       C1177   1.516       .  S
C381        C382   1.371       .  A
C381        H384   1.082       .  S
C382        C383   1.376       .  A
C382        H385   1.078       .  S
C383       C1127   1.501       .  S
N386        C390   1.368       .  A
N386        C387   1.376       .  A
N386       C1114   1.457       .  S
C387        C388   1.383       .  A
C387       C1184   1.504       .  S
C388        C389   1.368       .  A
C388        H391   1.079       .  S
C389        C390   1.380       .  A
C389        H392   1.081       .  S
C390       C1147   1.492       .  S
O393        V401   1.908       .  S
O393        C403   1.266       .  A
O394        V401   1.899       .  S
O394        C404   1.264       .  A
O395        V401   1.893       .  S
O395        C405   1.262       .  A
O396        V401   1.907       .  S
O396        C406   1.266       .  A
O397        V402   1.903       .  S
O397        C406   1.265       .  A
O398        V402   1.888       .  S
O398        C405   1.262       .  A
O399        V402   1.901       .  S
O399        C404   1.264       .  A
O400        V402   1.915       .  S
O400        C403   1.269       .  A
V401        V402   2.083       .  T
C403       C1167   1.502       .  S
C404       C1094   1.476       .  S
C405       C1104   1.467       .  S
C406       C1084   1.516       .  S
O407        V415   1.899       .  S
O407        C417   1.265       .  A
O408        V415   1.895       .  S
O408        C418   1.263       .  A
O409        V415   1.899       .  S
O409        C419   1.263       .  A
O410        V415   1.910       .  S
O410        C420   1.268       .  A
O411        V416   1.897       .  S
O411        C420   1.264       .  A
O412        V416   1.892       .  S
O412        C419   1.262       .  A
O413        V416   1.894       .  S
O413        C418   1.263       .  A
O414        V416   1.902       .  S
O414        C417   1.265       .  A
V415        V416   2.085       .  T
C417       C1054   1.498       .  S
C418       C1074   1.471       .  S
C419       C1064   1.468       .  S
C420       C1277   1.494       .  S
O421        V429   1.918       .  S
O421        C431   1.269       .  A
O422        V429   1.900       .  S
O422        C432   1.264       .  A
O423        V429   1.902       .  S
O423        C433   1.264       .  A
O424        V429   1.915       .  S
O424        C434   1.269       .  A
O425        V430   1.916       .  S
O425        C434   1.269       .  A
O426        V430   1.895       .  S
O426        C433   1.262       .  A
O427        V430   1.901       .  S
O427        C432   1.265       .  A
O428        V430   1.921       .  S
O428        C431   1.270       .  A
V429        V430   2.083       .  T
C431       C1307   1.523       .  S
C432       C1097   1.483       .  S
C433       C1077   1.472       .  S
C434       C1044   1.509       .  S
O435        V443   1.912       .  S
O435        C445   1.268       .  A
O436        V443   1.896       .  S
O436        C446   1.263       .  A
O437        V443   1.890       .  S
O437        C447   1.262       .  A
O438        V443   1.895       .  S
O438        C448   1.263       .  A
O439        V444   1.906       .  S
O439        C448   1.267       .  A
O440        V444   1.892       .  S
O440        C447   1.262       .  A
O441        V444   1.898       .  S
O441        C446   1.264       .  A
O442        V444   1.907       .  S
O442        C445   1.266       .  A
V443        V444   2.082       .  T
C445       C1137   1.516       .  S
C446       C1067   1.471       .  S
C447       C1107   1.462       .  S
C448       C1034   1.498       .  S
O449        V457   1.910       .  S
O449        C459   1.267       .  A
O450        V457   1.896       .  S
O450        C460   1.263       .  A
O451        V457   1.894       .  S
O451        C461   1.264       .  A
O452        V457   1.904       .  S
O452        C462   1.266       .  A
O453        V458   1.901       .  S
O453        C462   1.264       .  A
O454        V458   1.890       .  S
O454        C461   1.262       .  A
O455        V458   1.907       .  S
O455        C460   1.265       .  A
O456        V458   1.913       .  S
O456        C459   1.268       .  A
V457        V458   2.083       .  T
C459       C1797   1.498       .  S
C460       C1024   1.476       .  S
C461       C1014   1.474       .  S
C462       C1004   1.503       .  S
O463        V471   1.904       .  S
O463        C473   1.266       .  A
O464        V471   1.902       .  S
O464        C474   1.265       .  A
O465        V471   1.880       .  S
O465        C475   1.259       .  A
O466        V471   1.889       .  S
O466        C476   1.260       .  A
O467        V472   1.921       .  S
O467        C476   1.271       .  A
O468        V472   1.910       .  S
O468        C475   1.268       .  A
O469        V472   1.903       .  S
O469        C474   1.262       .  A
O470        V472   1.913       .  S
O470        C473   1.267       .  A
V471        V472   2.085       .  T
C473       C1787   1.500       .  S
C474        C994   1.471       .  S
C475        C984   1.481       .  S
C476        C974   1.497       .  S
O477        V485   1.912       .  S
O477        C487   1.267       .  A
O478        V485   1.898       .  S
O478        C488   1.263       .  A
O479        V485   1.903       .  S
O479        C489   1.265       .  A
O480        V485   1.918       .  S
O480        C490   1.269       .  A
O481        V486   1.889       .  S
O481        C490   1.261       .  A
O482        V486   1.886       .  S
O482        C489   1.260       .  A
O483        V486   1.890       .  S
O483        C488   1.262       .  A
O484        V486   1.903       .  S
O484        C487   1.266       .  A
V485        V486   2.081       .  T
C487        C964   1.507       .  S
C488       C1017   1.470       .  S
C489        C997   1.465       .  S
C490       C1817   1.517       .  S
O491        V499   1.914       .  S
O491        C501   1.268       .  A
O492        V499   1.909       .  S
O492        C502   1.266       .  A
O493        V499   1.901       .  S
O493        C503   1.263       .  A
O494        V499   1.905       .  S
O494        C504   1.265       .  A
O495        V500   1.912       .  S
O495        C504   1.268       .  A
O496        V500   1.898       .  S
O496        C503   1.265       .  A
O497        V500   1.891       .  S
O497        C502   1.262       .  A
O498        V500   1.908       .  S
O498        C501   1.266       .  A
V499        V500   2.082       .  T
C501       C1757   1.522       .  S
C502       C1027   1.479       .  S
C503        C987   1.478       .  S
C504        C954   1.506       .  S
N505        C509   1.374       .  A
N505        C506   1.381       .  A
N505        C934   1.470       .  S
C506        C507   1.381       .  A
C506        C944   1.491       .  S
C507        C508   1.358       .  A
C507        H510   1.085       .  S
C508        C509   1.378       .  A
C508        H511   1.082       .  S
C509        C924   1.487       .  S
N512        C516   1.373       .  A
N512        C513   1.380       .  A
N512        C937   1.475       .  S
C513        C514   1.382       .  A
C513        C914   1.496       .  S
C514        C515   1.356       .  A
C514        H517   1.082       .  S
C515        C516   1.378       .  A
C515        H518   1.081       .  S
C516        C904   1.484       .  S
N519        C523   1.376       .  A
N519        C520   1.381       .  A
N519        C894   1.474       .  S
C520        C521   1.382       .  A
C520       C1037   1.498       .  S
C521        C522   1.356       .  A
C521        H524   1.083       .  S
C522        C523   1.378       .  A
C522        H525   1.081       .  S
C523        C907   1.489       .  S
N526        C530   1.379       .  A
N526        C527   1.376       .  A
N526        C897   1.466       .  S
C527        C528   1.380       .  A
C527       C1057   1.489       .  S
C528        C529   1.354       .  A
C528        H531   1.085       .  S
C529        C530   1.381       .  A
C529        H532   1.082       .  S
C530        C927   1.497       .  S
N533        C537   1.379       .  A
N533        C534   1.381       .  A
N533        C884   1.462       .  S
C534        C535   1.380       .  A
C534       C1087   1.504       .  S
C535        C536   1.358       .  A
C535        H538   1.083       .  S
C536        C537   1.382       .  A
C536        H539   1.083       .  S
C537        C874   1.506       .  S
N540        C544   1.381       .  A
N540        C541   1.386       .  A
N540        C887   1.469       .  S
C541        C542   1.382       .  A
C541       C1047   1.507       .  S
C542        C543   1.359       .  A
C542        H545   1.084       .  S
C543        C544   1.378       .  A
C543        H546   1.083       .  S
C544        C864   1.505       .  S
N547        C551   1.373       .  A
N547        C548   1.377       .  A
N547        C847   1.458       .  S
C548        C549   1.382       .  A
C548        C857   1.504       .  S
C549        C550   1.367       .  A
C549        H552   1.083       .  S
C550        C551   1.380       .  A
C550        H553   1.083       .  S
C551        C877   1.501       .  S
N554        C558   1.368       .  A
N554        C555   1.378       .  A
N554        C844   1.443       .  S
C555        C556   1.388       .  A
C555        C837   1.528       .  S
C556        C557   1.373       .  A
C556        H559   1.082       .  S
C557        C558   1.378       .  A
C557        H560   1.082       .  S
C558        C867   1.507       .  S
N561        C565   1.376       .  A
N561        C562   1.384       .  A
N561        C824   1.472       .  S
C562        C563   1.382       .  A
C562        C957   1.506       .  S
C563        C564   1.358       .  A
C563        H566   1.085       .  S
C564        C565   1.377       .  A
C564        H567   1.085       .  S
C565        C814   1.489       .  S
N568        C572   1.375       .  A
N568        C569   1.374       .  A
N568        C827   1.460       .  S
C569        C570   1.381       .  A
C569       C1007   1.493       .  S
C570        C571   1.361       .  A
C570        H573   1.082       .  S
C571        C572   1.381       .  A
C571        H574   1.084       .  S
C572        C804   1.499       .  S
N575        C579   1.382       .  A
N575        C576   1.372       .  A
N575        C784   1.459       .  S
C576        C577   1.371       .  A
C576        C794   1.486       .  S
C577        C578   1.355       .  A
C577        H580   1.081       .  S
C578        C579   1.391       .  A
C578        H581   1.078       .  S
C579        C817   1.523       .  S
N582        C586   1.375       .  A
N582        C583   1.373       .  A
N582        C787   1.459       .  S
C583        C584   1.382       .  A
C583        C774   1.494       .  S
C584        C585   1.362       .  A
C584        H587   1.084       .  S
C585        C586   1.380       .  A
C585        H588   1.084       .  S
C586        C807   1.499       .  S
O589        V597   1.909       .  S
O589        C599   1.267       .  A
O590        V597   1.892       .  S
O590        C600   1.262       .  A
O591        V597   1.883       .  S
O591        C601   1.261       .  A
O592        V597   1.902       .  S
O592        C602   1.265       .  A
O593        V598   1.905       .  S
O593        C602   1.267       .  A
O594        V598   1.890       .  S
O594        C601   1.262       .  A
O595        V598   1.897       .  S
O595        C600   1.263       .  A
O596        V598   1.910       .  S
O596        C599   1.267       .  A
V597        V598   2.084       .  T
C599        C854   1.497       .  S
C600        C764   1.467       .  S
C601        C757   1.470       .  S
C602        C777   1.502       .  S
O603        V611   1.905       .  S
O603        C613   1.266       .  A
O604        V611   1.905       .  S
O604        C614   1.266       .  A
O605        V611   1.902       .  S
O605        C615   1.263       .  A
O606        V611   1.899       .  S
O606        C616   1.264       .  A
O607        V612   1.913       .  S
O607        C616   1.268       .  A
O608        V612   1.895       .  S
O608        C615   1.266       .  A
O609        V612   1.882       .  S
O609        C614   1.259       .  A
O610        V612   1.895       .  S
O610        C613   1.262       .  A
V611        V612   2.083       .  T
C613        C947   1.500       .  S
C614        C767   1.474       .  S
C615        C744   1.487       .  S
C616        C797   1.493       .  S
O617        V625   1.911       .  S
O617        C627   1.266       .  A
O618        V625   1.900       .  S
O618        C628   1.265       .  A
O619        V625   1.901       .  S
O619        C629   1.263       .  A
O620        V625   1.891       .  S
O620        C630   1.262       .  A
O621        V626   1.895       .  S
O621        C630   1.262       .  A
O622        V626   1.895       .  S
O622        C629   1.265       .  A
O623        V626   1.905       .  S
O623        C628   1.264       .  A
O624        V626   1.909       .  S
O624        C627   1.268       .  A
V625        V626   2.084       .  T
C627        C724   1.499       .  S
C628        C747   1.485       .  S
C629        C917   1.502       .  S
C630        C737   1.462       .  S
O631        V639   1.913       .  S
O631        C641   1.268       .  A
O632        V639   1.893       .  S
O632        C642   1.264       .  A
O633        V639   1.897       .  S
O633        C643   1.262       .  A
O634        V639   1.917       .  S
O634        C644   1.268       .  A
O635        V640   1.909       .  S
O635        C644   1.267       .  A
O636        V640   1.900       .  S
O636        C643   1.263       .  A
O637        V640   1.888       .  S
O637        C642   1.261       .  A
O638        V640   1.900       .  S
O638        C641   1.265       .  A
V639        V640   2.085       .  T
C641        C714   1.507       .  S
C642        C754   1.472       .  S
C643        C734   1.466       .  S
C644        C834   1.497       .  S
N645        C649   1.375       .  A
N645        C646   1.378       .  A
N645        C704   1.468       .  S
C646        C647   1.381       .  A
C646        C977   1.493       .  S
C647        C648   1.360       .  A
C647        H650   1.084       .  S
C648        C649   1.379       .  A
C648        H651   1.083       .  S
C649        C694   1.491       .  S
N652        C656   1.372       .  A
N652        C653   1.381       .  A
N652        C707   1.458       .  S
C653        C654   1.381       .  A
C653        C967   1.508       .  S
C654        C655   1.365       .  A
C654        H657   1.084       .  S
C655        C656   1.382       .  A
C655        H658   1.084       .  S
C656        C684   1.502       .  S
N659        C663   1.371       .  A
N659        C660   1.382       .  A
N659        C674   1.459       .  S
C660        C661   1.380       .  A
C660        C717   1.504       .  S
C661        C662   1.362       .  A
C661        H664   1.086       .  S
C662        C663   1.381       .  A
C662        H665   1.085       .  S
C663        C697   1.498       .  S
N666        C670   1.378       .  A
N666        C667   1.379       .  A
N666        C677   1.466       .  S
C667        C668   1.381       .  A
C667        C727   1.499       .  S
C668        C669   1.360       .  A
C668        H671   1.085       .  S
C669        C670   1.379       .  A
C669        H672   1.086       .  S
C670        C687   1.498       .  S
C673        C674   1.410       .  A
C673        C678   1.412       .  A
C673       Br680   1.918       .  S
C674        C675   1.416       .  A
C675        C676   1.418       .  A
C675       Br682   1.920       .  S
C676        C677   1.416       .  A
C676       Br681   1.922       .  S
C677        C678   1.416       .  A
C678       Br679   1.917       .  S
C683        C684   1.414       .  A
C683        C688   1.417       .  A
C683       Br690   1.918       .  S
C684        C685   1.415       .  A
C685        C686   1.409       .  A
C685       Br692   1.936       .  S
C686        C687   1.419       .  A
C686       Br691   1.938       .  S
C687        C688   1.412       .  A
C688       Br689   1.926       .  S
C693        C694   1.412       .  A
C693        C698   1.416       .  A
C693       Br700   1.930       .  S
C694        C695   1.416       .  A
C695        C696   1.407       .  A
C695       Br702   1.938       .  S
C696        C697   1.415       .  A
C696       Br701   1.937       .  S
C697        C698   1.415       .  A
C698       Br699   1.919       .  S
C703        C704   1.416       .  A
C703        C708   1.419       .  A
C703       Br710   1.921       .  S
C704        C705   1.418       .  A
C705        C706   1.412       .  A
C705       Br712   1.914       .  S
C706        C707   1.407       .  A
C706       Br711   1.919       .  S
C707        C708   1.416       .  A
C708       Br709   1.922       .  S
C713        C714   1.421       .  A
C713        C718   1.412       .  A
C713       Br720   1.940       .  S
C714        C715   1.414       .  A
C715        C716   1.420       .  A
C715       Br722   1.933       .  S
C716        C717   1.419       .  A
C716       Br721   1.921       .  S
C717        C718   1.418       .  A
C718       Br719   1.933       .  S
C723        C724   1.410       .  A
C723        C728   1.412       .  A
C723       Br730   1.934       .  S
C724        C725   1.420       .  A
C725        C726   1.417       .  A
C725       Br732   1.933       .  S
C726        C727   1.410       .  A
C726       Br731   1.926       .  S
C727        C728   1.422       .  A
C728       Br729   1.938       .  S
C733        C734   1.407       .  A
C733        C738   1.400       .  A
C733       Br740   1.923       .  S
C734        C735   1.409       .  A
C735        C736   1.405       .  A
C735       Br742   1.927       .  S
C736        C737   1.407       .  A
C736       Br741   1.929       .  S
C737        C738   1.405       .  A
C738       Br739   1.928       .  S
C743        C744   1.417       .  A
C743        C748   1.413       .  A
C743       Br750   1.931       .  S
C744        C745   1.411       .  A
C745        C746   1.404       .  A
C745       Br752   1.937       .  S
C746        C747   1.410       .  A
C746       Br751   1.925       .  S
C747        C748   1.413       .  A
C748       Br749   1.931       .  S
C753        C754   1.411       .  A
C753        C758   1.401       .  A
C753       Br760   1.935       .  S
C754        C755   1.415       .  A
C755        C756   1.404       .  A
C755       Br762   1.935       .  S
C756        C757   1.411       .  A
C756       Br761   1.936       .  S
C757        C758   1.412       .  A
C758       Br759   1.937       .  S
C763        C764   1.405       .  A
C763        C768   1.402       .  A
C763       Br770   1.935       .  S
C764        C765   1.410       .  A
C765        C766   1.408       .  A
C765       Br772   1.932       .  S
C766        C767   1.411       .  A
C766       Br771   1.929       .  S
C767        C768   1.416       .  A
C768       Br769   1.936       .  S
C773        C774   1.408       .  A
C773        C778   1.413       .  A
C773       Br780   1.922       .  S
C774        C775   1.417       .  A
C775        C776   1.412       .  A
C775       Br782   1.938       .  S
C776        C777   1.417       .  A
C776       Br781   1.934       .  S
C777        C778   1.422       .  A
C778       Br779   1.935       .  S
C783        C784   1.416       .  A
C783        C788   1.412       .  A
C783       Br790   1.932       .  S
C784        C785   1.415       .  A
C785        C786   1.418       .  A
C785       Br792   1.921       .  S
C786        C787   1.416       .  A
C786       Br791   1.923       .  S
C787        C788   1.414       .  A
C788       Br789   1.924       .  S
C793        C794   1.418       .  A
C793        C798   1.411       .  A
C793       Br800   1.934       .  S
C794        C795   1.405       .  A
C795        C796   1.411       .  A
C795       Br802   1.928       .  S
C796        C797   1.421       .  A
C796       Br801   1.931       .  S
C797        C798   1.410       .  A
C798       Br799   1.931       .  S
C803        C804   1.413       .  A
C803        C808   1.415   1_655  A
C803       Br810   1.921       .  S
C804        C805   1.418   1_655  A
C805        C806   1.411       .  A
C805       Br812   1.936       .  S
C806        C807   1.410       .  A
C806       Br811   1.922       .  S
C807        C808   1.418       .  A
C808       Br809   1.936       .  S
C813        C814   1.413   1_455  A
C813        C818   1.402       .  A
C813       Br820   1.935   1_455  S
C814        C815   1.408   1_655  A
C815        C816   1.414       .  A
C815       Br822   1.913       .  S
C816        C817   1.408       .  A
C816       Br821   1.911       .  S
C817        C818   1.415       .  A
C818       Br819   1.935       .  S
C823        C824   1.422       .  A
C823        C828   1.417       .  A
C823       Br830   1.916       .  S
C824        C825   1.422       .  A
C825        C826   1.414       .  A
C825       Br832   1.922       .  S
C826        C827   1.410       .  A
C826       Br831   1.924       .  S
C827        C828   1.411       .  A
C828       Br829   1.924       .  S
C833        C834   1.401       .  A
C833        C838   1.416       .  A
C833       Br840   1.928       .  S
C834        C835   1.411       .  A
C835        C836   1.418       .  A
C835       Br842   1.929       .  S
C836        C837   1.423       .  A
C836       Br841   1.917       .  S
C837        C838   1.430       .  A
C838       Br839   1.930       .  S
C843        C844   1.398       .  A
C843        C848   1.411       .  A
C843       Br850   1.924       .  S
C844        C845   1.414       .  A
C845        C846   1.409       .  A
C845       Br852   1.938       .  S
C846        C847   1.414       .  A
C846       Br851   1.920       .  S
C847        C848   1.422       .  A
C848       Br849   1.916       .  S
C853        C854   1.419       .  A
C853        C858   1.416       .  A
C853       Br860   1.930       .  S
C854        C855   1.408       .  A
C855        C856   1.415       .  A
C855       Br862   1.931       .  S
C856        C857   1.424       .  A
C856       Br861   1.935       .  S
C857        C858   1.410       .  A
C858       Br859   1.924       .  S
C863        C864   1.422       .  A
C863        C868   1.413   1_565  A
C863       Br870   1.934       .  S
C864        C865   1.412       .  A
C865        C866   1.418   1_565  A
C865       Br872   1.926       .  S
C866        C867   1.417       .  A
C866       Br871   1.917       .  S
C867        C868   1.411       .  A
C868       Br869   1.930       .  S
C873        C874   1.414       .  A
C873        C878   1.419       .  A
C873       Br880   1.920       .  S
C874        C875   1.421       .  A
C875        C876   1.410   1_565  A
C875       Br882   1.939       .  S
C876        C877   1.415       .  A
C876       Br881   1.936       .  S
C877        C878   1.415   1_545  A
C878       Br879   1.925   1_565  S
C883        C884   1.419       .  A
C883        C888   1.425       .  A
C883       Br890   1.923       .  S
C884        C885   1.409       .  A
C885        C886   1.409       .  A
C885       Br892   1.923       .  S
C886        C887   1.413       .  A
C886       Br891   1.917       .  S
C887        C888   1.419       .  A
C888       Br889   1.922       .  S
C893        C894   1.422       .  A
C893        C898   1.421       .  A
C893       Br900   1.928       .  S
C894        C895   1.423       .  A
C895        C896   1.418       .  A
C895       Br902   1.918       .  S
C896        C897   1.413       .  A
C896       Br901   1.926       .  S
C897        C898   1.414       .  A
C898       Br899   1.925       .  S
C903        C904   1.398       .  A
C903        C908   1.405       .  A
C903       Br910   1.892       .  S
C904        C905   1.412       .  A
C905        C906   1.403       .  A
C905       Br912   1.935       .  S
C906        C907   1.419       .  A
C906       Br911   1.936       .  S
C907        C908   1.404       .  A
C908       Br909   1.913       .  S
C913        C914   1.421       .  A
C913        C918   1.408       .  A
C913       Br920   1.937       .  S
C914        C915   1.414       .  A
C915        C916   1.415       .  A
C915       Br922   1.928       .  S
C916        C917   1.422       .  A
C916       Br921   1.939       .  S
C917        C918   1.415       .  A
C918       Br919   1.940       .  S
C923        C924   1.409       .  A
C923        C928   1.411       .  A
C923       Br930   1.923       .  S
C924        C925   1.413       .  A
C925        C926   1.413       .  A
C925       Br932   1.935       .  S
C926        C927   1.412       .  A
C926       Br931   1.921       .  S
C927        C928   1.421       .  A
C928       Br929   1.938       .  S
C933        C934   1.407       .  A
C933        C938   1.411       .  A
C933       Br940   1.913       .  S
C934        C935   1.418       .  A
C935        C936   1.429       .  A
C935       Br942   1.916       .  S
C936        C937   1.424       .  A
C936       Br941   1.926       .  S
C937        C938   1.418       .  A
C938       Br939   1.915       .  S
C943        C944   1.414       .  A
C943        C948   1.414       .  A
C943       Br950   1.928       .  S
C944        C945   1.418       .  A
C945        C946   1.411       .  A
C945       Br952   1.938       .  S
C946        C947   1.420       .  A
C946       Br951   1.938       .  S
C947        C948   1.418       .  A
C948       Br949   1.936       .  S
C953        C954   1.413       .  A
C953        C958   1.415       .  A
C953       Br960   1.933       .  S
C954        C955   1.423       .  A
C955        C956   1.416       .  A
C955       Br962   1.935       .  S
C956        C957   1.410       .  A
C956       Br961   1.925       .  S
C957        C958   1.425       .  A
C958       Br959   1.939       .  S
C963        C964   1.414       .  A
C963        C968   1.420       .  A
C963       Br970   1.933       .  S
C964        C965   1.420       .  A
C965        C966   1.413       .  A
C965       Br972   1.939       .  S
C966        C967   1.418       .  A
C966       Br971   1.930       .  S
C967        C968   1.419       .  A
C968       Br969   1.920       .  S
C973        C974   1.424       .  A
C973        C978   1.411       .  A
C973       Br980   1.940       .  S
C974        C975   1.410       .  A
C975        C976   1.413       .  A
C975       Br982   1.932       .  S
C976        C977   1.422       .  A
C976       Br981   1.937       .  S
C977        C978   1.406       .  A
C978       Br979   1.927       .  S
C983        C984   1.416       .  A
C983        C988   1.404       .  A
C983       Br990   1.936       .  S
C984        C985   1.415       .  A
C985        C986   1.410       .  A
C985       Br992   1.934       .  S
C986        C987   1.411       .  A
C986       Br991   1.927       .  S
C987        C988   1.409       .  A
C988       Br989   1.935       .  S
C993        C994   1.406       .  A
C993        C998   1.407       .  A
C993      Br1000   1.925       .  S
C994        C995   1.404       .  A
C995        C996   1.402       .  A
C995      Br1002   1.921       .  S
C996        C997   1.407       .  A
C996      Br1001   1.928       .  S
C997        C998   1.411       .  A
C998       Br999   1.931       .  S
C1003      C1004   1.417       .  A
C1003      C1008   1.411       .  A
C1003     Br1010   1.935       .  S
C1004      C1005   1.425       .  A
C1005      C1006   1.413       .  A
C1005     Br1012   1.936       .  S
C1006      C1007   1.407       .  A
C1006     Br1011   1.923       .  S
C1007      C1008   1.417       .  A
C1008     Br1009   1.939       .  S
C1013      C1014   1.411       .  A
C1013      C1018   1.405       .  A
C1013     Br1020   1.933       .  S
C1014      C1015   1.415       .  A
C1015      C1016   1.404       .  A
C1015     Br1022   1.935       .  S
C1016      C1017   1.409       .  A
C1016     Br1021   1.934       .  S
C1017      C1018   1.411       .  A
C1018     Br1019   1.933       .  S
C1023      C1024   1.410       .  A
C1023      C1028   1.410       .  A
C1023     Br1030   1.930       .  S
C1024      C1025   1.409       .  A
C1025      C1026   1.406       .  A
C1025     Br1032   1.932       .  S
C1026      C1027   1.413       .  A
C1026     Br1031   1.933       .  S
C1027      C1028   1.412       .  A
C1028     Br1029   1.930       .  S
C1033      C1034   1.415       .  A
C1033      C1038   1.411       .  A
C1033     Br1040   1.937       .  S
C1034      C1035   1.420       .  A
C1035      C1036   1.412       .  A
C1035     Br1042   1.935       .  S
C1036      C1037   1.410       .  A
C1036     Br1041   1.924       .  S
C1037      C1038   1.423       .  A
C1038     Br1039   1.941       .  S
C1043      C1044   1.423       .  A
C1043      C1048   1.421       .  A
C1043     Br1050   1.929       .  S
C1044      C1045   1.410       .  A
C1045      C1046   1.418       .  A
C1045     Br1052   1.931       .  S
C1046      C1047   1.424       .  A
C1046     Br1051   1.935       .  S
C1047      C1048   1.409       .  A
C1048     Br1049   1.925       .  S
C1053      C1054   1.415       .  A
C1053      C1058   1.408       .  A
C1053     Br1060   1.935       .  S
C1054      C1055   1.425       .  A
C1055      C1056   1.413       .  A
C1055     Br1062   1.935       .  S
C1056      C1057   1.406       .  A
C1056     Br1061   1.923       .  S
C1057      C1058   1.417       .  A
C1058     Br1059   1.939       .  S
C1063      C1064   1.410       .  A
C1063      C1068   1.407       .  A
C1063     Br1070   1.931       .  S
C1064      C1065   1.407       .  A
C1065      C1066   1.403       .  A
C1065     Br1072   1.932       .  S
C1066      C1067   1.410       .  A
C1066     Br1071   1.932       .  S
C1067      C1068   1.411       .  A
C1068     Br1069   1.932       .  S
C1073      C1074   1.410       .  A
C1073      C1078   1.407       .  A
C1073     Br1080   1.932       .  S
C1074      C1075   1.412       .  A
C1075      C1076   1.405       .  A
C1075     Br1082   1.933       .  S
C1076      C1077   1.408       .  A
C1076     Br1081   1.932       .  S
C1077      C1078   1.411       .  A
C1078     Br1079   1.931       .  S
C1083      C1084   1.427       .  A
C1083      C1088   1.417       .  A
C1083     Br1090   1.938       .  S
C1084      C1085   1.423       .  A
C1085      C1086   1.415       .  A
C1085     Br1092   1.938       .  S
C1086      C1087   1.418       .  A
C1086     Br1091   1.939       .  S
C1087      C1088   1.411       .  A
C1088     Br1089   1.920       .  S
C1093      C1094   1.409       .  A
C1093      C1098   1.407       .  A
C1093     Br1100   1.933       .  S
C1094      C1095   1.409       .  A
C1095      C1096   1.410       .  A
C1095     Br1102   1.932       .  S
C1096      C1097   1.416       .  A
C1096     Br1101   1.933       .  S
C1097      C1098   1.413       .  A
C1098     Br1099   1.933       .  S
C1103      C1104   1.413       .  A
C1103      C1108   1.403       .  A
C1103     Br1110   1.933       .  S
C1104      C1105   1.410       .  A
C1105      C1106   1.402       .  A
C1105     Br1112   1.933       .  S
C1106      C1107   1.408       .  A
C1106     Br1111   1.933       .  S
C1107      C1108   1.407       .  A
C1108     Br1109   1.933       .  S
C1113      C1114   1.413       .  A
C1113      C1118   1.403       .  A
C1113     Br1120   1.923       .  S
C1114      C1115   1.424       .  A
C1115      C1116   1.414       .  A
C1115     Br1122   1.922       .  S
C1116      C1117   1.402       .  A
C1116     Br1121   1.923       .  S
C1117      C1118   1.411       .  A
C1118     Br1119   1.929       .  S
C1123      C1124   1.415       .  A
C1123      C1128   1.417       .  A
C1123     Br1130   1.920       .  S
C1124      C1125   1.421       .  A
C1125      C1126   1.412       .  A
C1125     Br1132   1.936       .  S
C1126      C1127   1.412       .  A
C1126     Br1131   1.925       .  S
C1127      C1128   1.412       .  A
C1128     Br1129   1.929       .  S
C1133      C1134   1.409       .  A
C1133      C1138   1.418       .  A
C1133     Br1140   1.923       .  S
C1134      C1135   1.416       .  A
C1135      C1136   1.415       .  A
C1135     Br1142   1.939       .  S
C1136      C1137   1.422       .  A
C1136     Br1141   1.935       .  S
C1137      C1138   1.426       .  A
C1138     Br1139   1.935       .  S
C1143      C1144   1.403       .  A
C1143      C1148   1.409       .  A
C1143     Br1150   1.909       .  S
C1144      C1145   1.411       .  A
C1145      C1146   1.404       .  A
C1145     Br1152   1.932       .  S
C1146      C1147   1.416       .  A
C1146     Br1151   1.936       .  S
C1147      C1148   1.414       .  A
C1148     Br1149   1.920       .  S
C1153      C1154   1.411       .  A
C1153      C1158   1.420       .  A
C1153     Br1160   1.922       .  S
C1154      C1155   1.415       .  A
C1155      C1156   1.411       .  A
C1155     Br1162   1.931       .  S
C1156      C1157   1.414       .  A
C1156     Br1161   1.922       .  S
C1157      C1158   1.418       .  A
C1158     Br1159   1.921       .  S
C1163      C1164   1.416       .  A
C1163      C1168   1.413       .  A
C1163     Br1170   1.933       .  S
C1164      C1165   1.405       .  A
C1165      C1166   1.416       .  A
C1165     Br1172   1.928       .  S
C1166      C1167   1.422       .  A
C1166     Br1171   1.929       .  S
C1167      C1168   1.413       .  A
C1168     Br1169   1.930       .  S
C1173      C1174   1.402       .  A
C1173      C1178   1.414       .  A
C1173     Br1180   1.926       .  S
C1174      C1175   1.411       .  A
C1175      C1176   1.414       .  A
C1175     Br1182   1.929       .  S
C1176      C1177   1.421       .  A
C1176     Br1181   1.920       .  S
C1177      C1178   1.426       .  A
C1178     Br1179   1.932       .  S
C1183      C1184   1.410       .  A
C1183      C1188   1.410       .  A
C1183     Br1190   1.922       .  S
C1184      C1185   1.426       .  A
C1185      C1186   1.415       .  A
C1185     Br1192   1.935       .  S
C1186      C1187   1.406       .  A
C1186     Br1191   1.931       .  S
C1187      C1188   1.414       .  A
C1188     Br1189   1.930       .  S
C1193      C1194   1.417       .  A
C1193      C1198   1.412       .  A
C1193     Br1200   1.934       .  S
C1194      C1195   1.417       .  A
C1195      C1196   1.410       .  A
C1195     Br1202   1.936       .  S
C1196      C1197   1.414       .  A
C1196     Br1201   1.936       .  S
C1197      C1198   1.413       .  A
C1198     Br1199   1.934       .  S
C1203      C1204   1.410       .  A
C1203      C1208   1.410       .  A
C1203     Br1210   1.930       .  S
C1204      C1205   1.406       .  A
C1205      C1206   1.401       .  A
C1205     Br1212   1.921       .  S
C1206      C1207   1.411       .  A
C1206     Br1211   1.937       .  S
C1207      C1208   1.412       .  A
C1208     Br1209   1.930       .  S
C1213      C1214   1.411       .  A
C1213      C1218   1.409       .  A
C1213     Br1220   1.929       .  S
C1214      C1215   1.407       .  A
C1215      C1216   1.400       .  A
C1215     Br1222   1.923       .  S
C1216      C1217   1.407       .  A
C1216     Br1221   1.930       .  S
C1217      C1218   1.409       .  A
C1218     Br1219   1.930       .  S
C1223      C1224   1.416       .  A
C1223      C1228   1.404       .  A
C1223     Br1230   1.938       .  S
C1224      C1225   1.414       .  A
C1225      C1226   1.410       .  A
C1225     Br1232   1.929       .  S
C1226      C1227   1.414       .  A
C1226     Br1231   1.927       .  S
C1227      C1228   1.412       .  A
C1228     Br1229   1.938       .  S
C1233      C1234   1.424       .  A
C1233      C1238   1.415       .  A
C1233     Br1240   1.938       .  S
C1234      C1235   1.414       .  A
C1235      C1236   1.419       .  A
C1235     Br1242   1.922       .  S
C1236      C1237   1.420       .  A
C1236     Br1241   1.932       .  S
C1237      C1238   1.417       .  A
C1238     Br1239   1.939       .  S
C1243      C1244   1.415       .  A
C1243      C1248   1.419       .  A
C1243     Br1250   1.922       .  S
C1244      C1245   1.408       .  A
C1245      C1246   1.413       .  A
C1245     Br1252   1.922       .  S
C1246      C1247   1.419       .  A
C1246     Br1251   1.916       .  S
C1247      C1248   1.419       .  A
C1248     Br1249   1.928       .  S
C1253      C1254   1.424       .  A
C1253      C1258   1.421       .  A
C1253     Br1260   1.933       .  S
C1254      C1255   1.422       .  A
C1255      C1256   1.418       .  A
C1255     Br1262   1.937       .  S
C1256      C1257   1.420       .  A
C1256     Br1261   1.939       .  S
C1257      C1258   1.413       .  A
C1258     Br1259   1.918       .  S
C1263      C1264   1.418       .  A
C1263      C1268   1.403   1_556  A
C1263     Br1270   1.937       .  S
C1264      C1265   1.408       .  A
C1265      C1266   1.415   1_556  A
C1265     Br1272   1.910       .  S
C1266      C1267   1.411       .  A
C1266     Br1271   1.909       .  S
C1267      C1268   1.416       .  A
C1268     Br1269   1.936       .  S
C1273      C1274   1.425       .  A
C1273      C1278   1.410       .  A
C1273     Br1280   1.940       .  S
C1274      C1275   1.414       .  A
C1275      C1276   1.416       .  A
C1275     Br1282   1.922       .  S
C1276      C1277   1.418       .  A
C1276     Br1281   1.934       .  S
C1277      C1278   1.409       .  A
C1278     Br1279   1.935       .  S
C1283      C1284   1.413       .  A
C1283      C1288   1.421   1_554  A
C1283     Br1290   1.921       .  S
C1284      C1285   1.420   1_554  A
C1285      C1286   1.421       .  A
C1285     Br1292   1.936       .  S
C1286      C1287   1.416       .  A
C1286     Br1291   1.919       .  S
C1287      C1288   1.422       .  A
C1288     Br1289   1.935       .  S
C1293      C1294   1.407       .  A
C1293      C1298   1.417       .  A
C1293     Br1300   1.929       .  S
C1294      C1295   1.414       .  A
C1295      C1296   1.415       .  A
C1295     Br1302   1.925       .  S
C1296      C1297   1.418       .  A
C1296     Br1301   1.929       .  S
C1297      C1298   1.425       .  A
C1298     Br1299   1.918       .  S
C1303      C1304   1.416       .  A
C1303      C1308   1.425       .  A
C1303     Br1310   1.916       .  S
C1304      C1305   1.426       .  A
C1305      C1306   1.421       .  A
C1305     Br1312   1.936       .  S
C1306      C1307   1.415       .  A
C1306     Br1311   1.932       .  S
C1307      C1308   1.425       .  A
C1308     Br1309   1.935       .  S
C1313      C1314   1.412       .  A
C1313      C1318   1.421       .  A
C1313     Br1320   1.928       .  S
C1314      C1315   1.421       .  A
C1315      C1316   1.418       .  A
C1315     Br1322   1.940       .  S
C1316      C1317   1.428       .  A
C1316     Br1321   1.939       .  S
C1317      C1318   1.428       .  A
C1318     Br1319   1.937       .  S
C1323      C1324   1.415       .  A
C1323      C1328   1.423       .  A
C1323     Br1330   1.924       .  S
C1324      C1325   1.410       .  A
C1325      C1326   1.417       .  A
C1325     Br1332   1.924       .  S
C1326      C1327   1.423       .  A
C1326     Br1331   1.912       .  S
C1327      C1328   1.421       .  A
C1328     Br1329   1.925       .  S
C1333      C1334   1.422       .  A
C1333      C1338   1.412       .  A
C1333     Br1340   1.938       .  S
C1334      C1335   1.430       .  A
C1335      C1336   1.417       .  A
C1335     Br1342   1.938       .  S
C1336      C1337   1.406       .  A
C1336     Br1341   1.928       .  S
C1337      C1338   1.417       .  A
C1338     Br1339   1.942       .  S
C1343      C1344   1.406   1_455  A
C1343      C1348   1.412       .  A
C1343     Br1350   1.894       .  S
C1344      C1345   1.419   1_655  A
C1345      C1346   1.413       .  A
C1345     Br1352   1.934   1_455  S
C1346      C1347   1.418       .  A
C1346     Br1351   1.934       .  S
C1347      C1348   1.403       .  A
C1348     Br1349   1.913       .  S
C1353      C1354   1.411       .  A
C1353      C1358   1.413   1_655  A
C1353     Br1360   1.918       .  S
C1354      C1355   1.417   1_655  A
C1355      C1356   1.417       .  A
C1355     Br1362   1.935       .  S
C1356      C1357   1.413       .  A
C1356     Br1361   1.920       .  S
C1357      C1358   1.419       .  A
C1358     Br1359   1.937       .  S
C1363      C1364   1.417       .  A
C1363      C1368   1.424       .  A
C1363     Br1370   1.914       .  S
C1364      C1365   1.410       .  A
C1365      C1366   1.411       .  A
C1365     Br1372   1.915       .  S
C1366      C1367   1.418       .  A
C1366     Br1371   1.917       .  S
C1367      C1368   1.418       .  A
C1368     Br1369   1.924       .  S
C1373      C1374   1.412       .  A
C1373      C1378   1.409       .  A
C1373     Br1380   1.920       .  S
C1374      C1375   1.419       .  A
C1375      C1376   1.420       .  A
C1375     Br1382   1.918       .  S
C1376      C1377   1.414       .  A
C1376     Br1381   1.924       .  S
C1377      C1378   1.414       .  A
C1378     Br1379   1.918       .  S
C1383      C1384   1.418       .  A
C1383      C1388   1.410       .  A
C1383     Br1390   1.935       .  S
C1384      C1385   1.415       .  A
C1385      C1386   1.418       .  A
C1385     Br1392   1.924       .  S
C1386      C1387   1.411       .  A
C1386     Br1391   1.922       .  S
C1387      C1388   1.416       .  A
C1388     Br1389   1.940       .  S
C1393      C1394   1.409       .  A
C1393      C1398   1.416       .  A
C1393     Br1400   1.925       .  S
C1394      C1395   1.424       .  A
C1395      C1396   1.417       .  A
C1395     Br1402   1.935       .  S
C1396      C1397   1.409       .  A
C1396     Br1401   1.930       .  S
C1397      C1398   1.421       .  A
C1398     Br1399   1.931       .  S
C1403      C1404   1.417       .  A
C1403      C1408   1.422       .  A
C1403     Br1410   1.916       .  S
C1404      C1405   1.416       .  A
C1405      C1406   1.413       .  A
C1405     Br1412   1.935       .  S
C1406      C1407   1.419       .  A
C1406     Br1411   1.936       .  S
C1407      C1408   1.413       .  A
C1408     Br1409   1.927       .  S
C1413      C1414   1.408       .  A
C1413      C1418   1.409       .  A
C1413     Br1420   1.917       .  S
C1414      C1415   1.417       .  A
C1415      C1416   1.419       .  A
C1415     Br1422   1.922       .  S
C1416      C1417   1.415       .  A
C1416     Br1421   1.919       .  S
C1417      C1418   1.414       .  A
C1418     Br1419   1.915       .  S
C1423      C1424   1.416       .  A
C1423      C1428   1.422       .  A
C1423     Br1430   1.921       .  S
C1424      C1425   1.418       .  A
C1425      C1426   1.419       .  A
C1425     Br1432   1.934       .  S
C1426      C1427   1.429       .  A
C1426     Br1431   1.943       .  S
C1427      C1428   1.424       .  A
C1428     Br1429   1.936       .  S
C1433      C1434   1.422       .  A
C1433      C1438   1.419       .  A
C1433     Br1440   1.938       .  S
C1434      C1435   1.426       .  A
C1435      C1436   1.421       .  A
C1435     Br1442   1.935       .  S
C1436      C1437   1.412       .  A
C1436     Br1441   1.931       .  S
C1437      C1438   1.421       .  A
C1438     Br1439   1.936       .  S
C1443      C1444   1.424       .  A
C1443      C1448   1.412       .  A
C1443     Br1450   1.943       .  S
C1444      C1445   1.422       .  A
C1445      C1446   1.417       .  A
C1445     Br1452   1.939       .  S
C1446      C1447   1.414       .  A
C1446     Br1451   1.919       .  S
C1447      C1448   1.418       .  A
C1448     Br1449   1.938       .  S
C1453      C1454   1.419       .  A
C1453      C1458   1.418       .  A
C1453     Br1460   1.934       .  S
C1454      C1455   1.423       .  A
C1455      C1456   1.414       .  A
C1455     Br1462   1.937       .  S
C1456      C1457   1.417       .  A
C1456     Br1461   1.934       .  S
C1457      C1458   1.416       .  A
C1458     Br1459   1.924       .  S
C1463      C1464   1.409       .  A
C1463      C1468   1.402       .  A
C1463     Br1470   1.933       .  S
C1464      C1465   1.410       .  A
C1465      C1466   1.406       .  A
C1465     Br1472   1.931       .  S
C1466      C1467   1.409       .  A
C1466     Br1471   1.931       .  S
C1467      C1468   1.407       .  A
C1468     Br1469   1.925       .  S
C1473      C1474   1.407       .  A
C1473      C1478   1.399       .  A
C1473     Br1480   1.934       .  S
C1474      C1475   1.411       .  A
C1475      C1476   1.407       .  A
C1475     Br1482   1.932       .  S
C1476      C1477   1.411       .  A
C1476     Br1481   1.932       .  S
C1477      C1478   1.410       .  A
C1478     Br1479   1.934       .  S
C1483      C1484   1.420       .  A
C1483      C1488   1.418       .  A
C1483     Br1490   1.930       .  S
C1484      C1485   1.411       .  A
C1485      C1486   1.420       .  A
C1485     Br1492   1.930       .  S
C1486      C1487   1.426       .  A
C1486     Br1491   1.935       .  S
C1487      C1488   1.410       .  A
C1488     Br1489   1.924       .  S
C1493      C1494   1.414       .  A
C1493      C1498   1.406       .  A
C1493     Br1500   1.935       .  S
C1494      C1495   1.414       .  A
C1495      C1496   1.403       .  A
C1495     Br1502   1.935       .  S
C1496      C1497   1.409       .  A
C1496     Br1501   1.936       .  S
C1497      C1498   1.408       .  A
C1498     Br1499   1.927       .  S
C1503      C1504   1.410       .  A
C1503      C1508   1.413       .  A
C1503     Br1510   1.931       .  S
C1504      C1505   1.407       .  A
C1505      C1506   1.408       .  A
C1505     Br1512   1.931       .  S
C1506      C1507   1.417       .  A
C1506     Br1511   1.935       .  S
C1507      C1508   1.416       .  A
C1508     Br1509   1.931       .  S
C1513      C1514   1.412       .  A
C1513      C1518   1.414       .  A
C1513     Br1520   1.918       .  S
C1514      C1515   1.418       .  A
C1515      C1516   1.412       .  A
C1515     Br1522   1.936       .  S
C1516      C1517   1.413       .  A
C1516     Br1521   1.933       .  S
C1517      C1518   1.419       .  A
C1518     Br1519   1.937       .  S
C1523      C1524   1.406       .  A
C1523      C1528   1.421       .  A
C1523     Br1530   1.922       .  S
C1524      C1525   1.418       .  A
C1525      C1526   1.410       .  A
C1525     Br1532   1.937       .  S
C1526      C1527   1.414       .  A
C1526     Br1531   1.919       .  S
C1527      C1528   1.418       .  A
C1528     Br1529   1.916       .  S
C1533      C1534   1.412       .  A
C1533      C1538   1.418       .  A
C1533     Br1540   1.923       .  S
C1534      C1535   1.417       .  A
C1535      C1536   1.420       .  A
C1535     Br1542   1.925       .  S
C1536      C1537   1.416       .  A
C1536     Br1541   1.931       .  S
C1537      C1538   1.422       .  A
C1538     Br1539   1.934       .  S
C1543      C1544   1.414       .  A
C1543      C1548   1.420       .  A
C1543     Br1550   1.924       .  S
C1544      C1545   1.409       .  A
C1545      C1546   1.407       .  A
C1545     Br1552   1.925       .  S
C1546      C1547   1.416       .  A
C1546     Br1551   1.932       .  S
C1547      C1548   1.416       .  A
C1548     Br1549   1.927       .  S
C1553      C1554   1.407       .  A
C1553      C1558   1.415       .  A
C1553     Br1560   1.921       .  S
C1554      C1555   1.414       .  A
C1555      C1556   1.409       .  A
C1555     Br1562   1.938       .  S
C1556      C1557   1.425       .  A
C1556     Br1561   1.934       .  S
C1557      C1558   1.423       .  A
C1558     Br1559   1.908       .  S
C1563      C1564   1.424       .  A
C1563      C1568   1.416       .  A
C1563     Br1570   1.926       .  S
C1564      C1565   1.415       .  A
C1565      C1566   1.405       .  A
C1565     Br1572   1.922       .  S
C1566      C1567   1.413       .  A
C1566     Br1571   1.935       .  S
C1567      C1568   1.403       .  A
C1568     Br1569   1.923       .  S
C1573      C1574   1.409       .  A
C1573      C1578   1.403       .  A
C1573     Br1580   1.932       .  S
C1574      C1575   1.406       .  A
C1575      C1576   1.405       .  A
C1575     Br1582   1.932       .  S
C1576      C1577   1.414       .  A
C1576     Br1581   1.933       .  S
C1577      C1578   1.410       .  A
C1578     Br1579   1.934       .  S
C1583      C1584   1.410       .  A
C1583      C1588   1.414       .  A
C1583     Br1590   1.931       .  S
C1584      C1585   1.399       .  A
C1585      C1586   1.412       .  A
C1585     Br1592   1.931       .  S
C1586      C1587   1.431       .  A
C1586     Br1591   1.931       .  S
C1587      C1588   1.421       .  A
C1588     Br1589   1.922       .  S
C1593      C1594   1.409       .  A
C1593      C1598   1.404       .  A
C1593     Br1600   1.933       .  S
C1594      C1595   1.411       .  A
C1595      C1596   1.404       .  A
C1595     Br1602   1.933       .  S
C1596      C1597   1.409       .  A
C1596     Br1601   1.934       .  S
C1597      C1598   1.413       .  A
C1598     Br1599   1.935       .  S
C1603      C1604   1.409       .  A
C1603      C1608   1.416       .  A
C1603     Br1610   1.933       .  S
C1604      C1605   1.416       .  A
C1605      C1606   1.417       .  A
C1605     Br1612   1.934       .  S
C1606      C1607   1.415       .  A
C1606     Br1611   1.921       .  S
C1607      C1608   1.427       .  A
C1608     Br1609   1.937       .  S
C1613      C1614   1.412       .  A
C1613      C1618   1.408       .  A
C1613     Br1620   1.931       .  S
C1614      C1615   1.407       .  A
C1615      C1616   1.405       .  A
C1615     Br1622   1.924       .  S
C1616      C1617   1.412       .  A
C1616     Br1621   1.933       .  S
C1617      C1618   1.410       .  A
C1618     Br1619   1.931       .  S
C1623      C1624   1.415       .  A
C1623      C1628   1.409       .  A
C1623     Br1630   1.934       .  S
C1624      C1625   1.412       .  A
C1625      C1626   1.406       .  A
C1625     Br1632   1.935       .  S
C1626      C1627   1.413       .  A
C1626     Br1631   1.934       .  S
C1627      C1628   1.410       .  A
C1628     Br1629   1.932       .  S
C1633      C1634   1.419       .  A
C1633      C1638   1.414       .  A
C1633     Br1640   1.935       .  S
C1634      C1635   1.426       .  A
C1635      C1636   1.416       .  A
C1635     Br1642   1.935       .  S
C1636      C1637   1.407       .  A
C1636     Br1641   1.925       .  S
C1637      C1638   1.416       .  A
C1638     Br1639   1.936       .  S
C1643      C1644   1.417       .  A
C1643      C1648   1.413       .  A
C1643     Br1650   1.931       .  S
C1644      C1645   1.412       .  A
C1645      C1646   1.418       .  A
C1645     Br1652   1.921       .  S
C1646      C1647   1.414       .  A
C1646     Br1651   1.920       .  S
C1647      C1648   1.415       .  A
C1648     Br1649   1.924       .  S
C1653      C1654   1.417       .  A
C1653      C1658   1.412       .  A
C1653     Br1660   1.933       .  S
C1654      C1655   1.406       .  A
C1655      C1656   1.413       .  A
C1655     Br1662   1.929       .  S
C1656      C1657   1.421       .  A
C1656     Br1661   1.932       .  S
C1657      C1658   1.410       .  A
C1658     Br1659   1.931       .  S
C1663      C1664   1.419       .  A
C1663      C1668   1.411   1_565  A
C1663     Br1670   1.936       .  S
C1664      C1665   1.414       .  A
C1665      C1666   1.416       .  A
C1665     Br1672   1.920       .  S
C1666      C1667   1.417   1_565  A
C1666     Br1671   1.933       .  S
C1667      C1668   1.411       .  A
C1668     Br1669   1.921       .  S
C1673      C1674   1.409       .  A
C1673      C1678   1.418       .  A
C1673     Br1680   1.919       .  S
C1674      C1675   1.418       .  A
C1675      C1676   1.416       .  A
C1675     Br1682   1.939       .  S
C1676      C1677   1.424       .  A
C1676     Br1681   1.937       .  S
C1677      C1678   1.429       .  A
C1678     Br1679   1.939       .  S
C1683      C1684   1.419       .  A
C1683      C1688   1.405       .  A
C1683     Br1690   1.936       .  S
C1684      C1685   1.410       .  A
C1685      C1686   1.411       .  A
C1685     Br1692   1.920       .  S
C1686      C1687   1.404   1_565  A
C1686     Br1691   1.898   1_565  S
C1687      C1688   1.411   1_545  A
C1688     Br1689   1.932   1_565  S
C1693      C1694   1.423       .  A
C1693      C1698   1.420       .  A
C1693     Br1700   1.918       .  S
C1694      C1695   1.413       .  A
C1695      C1696   1.408       .  A
C1695     Br1702   1.920       .  S
C1696      C1697   1.411       .  A
C1696     Br1701   1.922       .  S
C1697      C1698   1.413       .  A
C1698     Br1699   1.925       .  S
C1703      C1704   1.409       .  A
C1703      C1708   1.414       .  A
C1703     Br1710   1.926       .  S
C1704      C1705   1.422       .  A
C1705      C1706   1.410       .  A
C1705     Br1712   1.937       .  S
C1706      C1707   1.407       .  A
C1706     Br1711   1.933       .  S
C1707      C1708   1.419       .  A
C1708     Br1709   1.932       .  S
C1713      C1714   1.424       .  A
C1713      C1718   1.418       .  A
C1713     Br1720   1.937       .  S
C1714      C1715   1.415       .  A
C1715      C1716   1.415       .  A
C1715     Br1722   1.938       .  S
C1716      C1717   1.423       .  A
C1716     Br1721   1.934       .  S
C1717      C1718   1.414       .  A
C1718     Br1719   1.928       .  S
C1723      C1724   1.411       .  A
C1723      C1728   1.412       .  A
C1723     Br1730   1.920       .  S
C1724      C1725   1.416       .  A
C1725      C1726   1.426       .  A
C1725     Br1732   1.917       .  S
C1726      C1727   1.421       .  A
C1726     Br1731   1.925       .  S
C1727      C1728   1.417       .  A
C1728     Br1729   1.920       .  S
C1733      C1734   1.412       .  A
C1733      C1738   1.419       .  A
C1733     Br1740   1.932       .  S
C1734      C1735   1.417       .  A
C1735      C1736   1.411       .  A
C1735     Br1742   1.939       .  S
C1736      C1737   1.419       .  A
C1736     Br1741   1.925       .  S
C1737      C1738   1.420       .  A
C1738     Br1739   1.923       .  S
C1743      C1744   1.421       .  A
C1743      C1748   1.412       .  A
C1743     Br1750   1.934       .  S
C1744      C1745   1.414       .  A
C1745      C1746   1.411       .  A
C1745     Br1752   1.912       .  S
C1746      C1747   1.402   1_556  A
C1746     Br1751   1.906       .  S
C1747      C1748   1.416   1_554  A
C1748     Br1749   1.936   1_556  S
C1753      C1754   1.416       .  A
C1753      C1758   1.419       .  A
C1753     Br1760   1.929       .  S
C1754      C1755   1.412       .  A
C1755      C1756   1.418       .  A
C1755     Br1762   1.930       .  S
C1756      C1757   1.427       .  A
C1756     Br1761   1.936       .  S
C1757      C1758   1.425       .  A
C1758     Br1759   1.938       .  S
C1763      C1764   1.412       .  A
C1763      C1768   1.416       .  A
C1763     Br1770   1.928       .  S
C1764      C1765   1.417       .  A
C1765      C1766   1.415       .  A
C1765     Br1772   1.925       .  S
C1766      C1767   1.415   1_556  A
C1766     Br1771   1.930   1_556  S
C1767      C1768   1.413   1_554  A
C1768     Br1769   1.920   1_556  S
C1773      C1774   1.414       .  A
C1773      C1778   1.422       .  A
C1773     Br1780   1.921       .  S
C1774      C1775   1.414       .  A
C1775      C1776   1.406       .  A
C1775     Br1782   1.926       .  S
C1776      C1777   1.411       .  A
C1776     Br1781   1.923       .  S
C1777      C1778   1.414       .  A
C1778     Br1779   1.918       .  S
C1783      C1784   1.410       .  A
C1783      C1788   1.413       .  A
C1783     Br1790   1.918       .  S
C1784      C1785   1.422       .  A
C1785      C1786   1.417       .  A
C1785     Br1792   1.931       .  S
C1786      C1787   1.412       .  A
C1786     Br1791   1.931       .  S
C1787      C1788   1.418       .  A
C1788     Br1789   1.935       .  S
C1793      C1794   1.408       .  A
C1793      C1798   1.417       .  A
C1793     Br1800   1.926       .  S
C1794      C1795   1.424       .  A
C1795      C1796   1.414       .  A
C1795     Br1802   1.936       .  S
C1796      C1797   1.408       .  A
C1796     Br1801   1.931       .  S
C1797      C1798   1.420       .  A
C1798     Br1799   1.929       .  S
C1803      C1804   1.416       .  A
C1803      C1808   1.420       .  A
C1803     Br1810   1.920       .  S
C1804      C1805   1.411       .  A
C1805      C1806   1.408       .  A
C1805     Br1812   1.923       .  S
C1806      C1807   1.415       .  A
C1806     Br1811   1.917       .  S
C1807      C1808   1.418       .  A
C1808     Br1809   1.920       .  S
C1813      C1814   1.418       .  A
C1813      C1818   1.413       .  A
C1813     Br1820   1.943       .  S
C1814      C1815   1.412       .  A
C1815      C1816   1.420       .  A
C1815     Br1822   1.920       .  S
C1816      C1817   1.425       .  A
C1816     Br1821   1.936       .  S
C1817      C1818   1.426       .  A
C1818     Br1819   1.942       .  S
C1823      C1824   1.416       .  A
C1823      C1828   1.406       .  A
C1823     Br1830   1.938       .  S
C1824      C1825   1.414       .  A
C1825      C1826   1.418       .  A
C1825     Br1832   1.930       .  S
C1826      C1827   1.413       .  A
C1826     Br1831   1.921       .  S
C1827      C1828   1.417       .  A
C1828     Br1829   1.941       .  S
C1833      C1834   1.406       .  A
C1833      C1838   1.413       .  A
C1833     Br1840   1.924       .  S
C1834      C1835   1.426       .  A
C1835      C1836   1.418       .  A
C1835     Br1842   1.935       .  S
C1836      C1837   1.409       .  A
C1836     Br1841   1.930       .  S
C1837      C1838   1.422       .  A
C1838     Br1839   1.930       .  S
C1843      C1844   1.413       .  A
C1843      C1848   1.419       .  A
C1843     Br1850   1.918       .  S
C1844      C1845   1.417       .  A
C1845      C1846   1.407       .  A
C1845     Br1852   1.939       .  S
C1846      C1847   1.417       .  A
C1846     Br1851   1.939       .  S
C1847      C1848   1.413       .  A
C1848     Br1849   1.927       .  S
C1853      C1854   1.419       .  A
C1853      C1858   1.423       .  A
C1853     Br1860   1.920       .  S
C1854      C1855   1.407       .  A
C1855      C1856   1.407       .  A
C1855     Br1862   1.923       .  S
C1856      C1857   1.416       .  A
C1856     Br1861   1.912       .  S
C1857      C1858   1.417       .  A
C1858     Br1859   1.920       .  S
C1863      C1864   1.413       .  A
C1863      C1868   1.420       .  A
C1863     Br1870   1.923       .  S
C1864      C1865   1.417       .  A
C1865      C1866   1.414       .  A
C1865     Br1872   1.942       .  S
C1866      C1867   1.428       .  A
C1866     Br1871   1.943       .  S
C1867      C1868   1.425       .  A
C1868     Br1869   1.937       .  S
