geometry optimzed in LAMMPS
_audit_creation_date              2020-12-01 
_audit_creation_method            'lammps2cif' 
_symmetry_space_group_name_H-M    'P1' 
_symmetry_Int_Tables_number       1 
_symmetry_cell_setting            triclinic 
loop_ 
_symmetry_equiv_pos_as_xyz 
  x,y,z 
_cell_length_a                    44.43643825 
_cell_length_b                    44.40960980623341 
_cell_length_c                    44.4371083676041 
_cell_angle_alpha                 89.52416033261946 
_cell_angle_beta                  90.18966528905926 
_cell_angle_gamma                 90.47475625312372 
loop_ 
_atom_site_label 
_atom_site_type_symbol 
_atom_site_fract_x 
_atom_site_fract_y 
_atom_site_fract_z 
_atom_site_charge 
N1          N  0.80187002  0.21811006  0.01323760     0.01100
C2          C  0.82798109  0.21798730  0.99679339     0.03700
C3          C  0.84636961  0.19487710  0.00616660    -0.19200
C4          C  0.83169956  0.17997412  0.02886496    -0.19400
C5          C  0.80460523  0.19422950  0.03289115     0.03600
H6          H  0.86794087  0.18886471  0.99673568     0.17400
H7          H  0.83984181  0.16042149  0.04105203     0.17400
N8          N  0.73758933  0.28292663  0.00654754     0.01100
C9          C  0.73810776  0.30989951  0.02127044     0.03700
C10         C  0.71653448  0.32897127  0.00974956    -0.19200
C11         C  0.70182306  0.31367369  0.98747471    -0.19400
C12         C  0.71473792  0.28562286  0.98595895     0.03600
H13         H  0.71100696  0.35120600  0.01781902     0.17400
H14         H  0.68306621  0.32189413  0.97419743     0.17400
N15         N  0.80314846  0.99754248  0.23098016     0.01100
C16         C  0.80581261  0.01734459  0.20722982     0.03700
C17         C  0.83215454  0.01263327  0.19179739    -0.19200
C18         C  0.84653512  0.98939706  0.20591242    -0.19400
C19         C  0.82870922  0.98041825  0.22972038     0.03600
H20         H  0.84008774  0.02489211  0.17214684     0.17400
H21         H  0.86767755  0.97958142  0.19913392     0.17400
N22         N  0.73600024  0.99348283  0.29349377     0.01100
C23         C  0.71074689  0.97547722  0.29404685     0.03700
C24         C  0.69424654  0.98046153  0.31971693    -0.19200
C25         C  0.70919347  0.00212105  0.33569410    -0.19400
C26         C  0.73454066  0.00985941  0.31947174     0.03600
H27         H  0.67335842  0.96944487  0.32614218     0.17400
H28         H  0.70188316  0.01188187  0.35668399     0.17400
O29         O  0.75566106  0.29637408  0.35576658    -0.69800
O30         O  0.77763987  0.37936398  0.35056492    -0.69800
O31         O  0.77794851  0.33512568  0.39557279    -0.69900
O32         O  0.75513785  0.33886005  0.31252355    -0.69900
O33         O  0.70822937  0.35118147  0.32518660    -0.69900
O34         O  0.73143192  0.34773672  0.40892797    -0.69900
O35         O  0.73097371  0.39250949  0.36289341    -0.69800
O36         O  0.70884948  0.30847734  0.36904121    -0.69900
Ni37       Ni  0.76829894  0.33724353  0.35338094     1.25400
Ni38       Ni  0.71825700  0.35073941  0.36727754     1.25400
C39         C  0.72883564  0.28887328  0.36294296     0.92400
C40         C  0.75722189  0.39936716  0.35271693     0.92300
C41         C  0.75766339  0.33772660  0.41578704     0.92300
C42         C  0.72803497  0.34517119  0.30532086     0.92500
O43         O  0.70614850  0.30749747  0.15237197    -0.69800
O44         O  0.72539904  0.39151576  0.15764999    -0.69800
O45         O  0.72596228  0.34819402  0.11238517    -0.69900
O46         O  0.70561942  0.34941094  0.19628008    -0.69900
O47         O  0.75339347  0.33863421  0.20758876    -0.69900
O48         O  0.77362517  0.33740391  0.12381656    -0.69900
O49         O  0.77305657  0.38086450  0.16928519    -0.69800
O50         O  0.75395516  0.29696216  0.16388146    -0.69900
Ni51       Ni  0.71416195  0.34980941  0.15400607     1.25400
Ni52       Ni  0.76529555  0.33828990  0.16634063     1.25400
C53         C  0.72713659  0.28861264  0.15739659     0.92400
C54         C  0.75139537  0.39962349  0.16742153     0.92300
C55         C  0.75224749  0.33953899  0.10452519     0.92300
C56         C  0.72638578  0.34416423  0.21557212     0.92500
O57         O  0.71686740  0.13586726  0.19517327    -0.69800
O58         O  0.74289393  0.14253120  0.11259224    -0.69800
O59         O  0.74423025  0.09744679  0.15847366    -0.69900
O60         O  0.71519095  0.17845104  0.15132675    -0.69900
O61         O  0.76028200  0.19558684  0.16609103    -0.69900
O62         O  0.78879672  0.11489832  0.17400239    -0.69900
O63         O  0.78777440  0.15896016  0.12828849    -0.69800
O64         O  0.76169218  0.15366618  0.20992291    -0.69900
Ni65       Ni  0.72833779  0.13763162  0.15354683     1.25400
Ni66       Ni  0.77636747  0.15613978  0.16985937     1.25400
C67         C  0.73519025  0.14410234  0.21588000     0.92400
C68         C  0.76840563  0.15531500  0.10720194     0.92300
C69         C  0.76997145  0.09310208  0.17088814     0.92300
C70         C  0.73311116  0.20009464  0.15779667     0.92500
O71         O  0.70858113  0.17979818  0.36673971    -0.69800
O72         O  0.72888751  0.09623606  0.36401200    -0.69800
O73         O  0.72741078  0.14079662  0.40834884    -0.69900
O74         O  0.71018070  0.13705981  0.32383401    -0.69900
O75         O  0.75814050  0.14916777  0.31425725    -0.69900
O76         O  0.77529035  0.15281211  0.39879084    -0.69900
O77         O  0.77673603  0.10791563  0.35391869    -0.69800
O78         O  0.75657319  0.19177482  0.35713515    -0.69900
Ni79       Ni  0.71719098  0.13774069  0.36635224     1.25400
Ni80       Ni  0.76854260  0.15057178  0.35592162     1.25400
C81         C  0.72937344  0.19934679  0.36236085     0.92400
C82         C  0.75510995  0.08861905  0.35502034     0.92300
C83         C  0.75300715  0.15119797  0.41699618     0.92300
C84         C  0.73146524  0.14281417  0.30533018     0.92500
N85         N  0.79075153  0.28122368  0.51304814     0.01100
C86         C  0.79138261  0.30699939  0.49577599     0.03700
C87         C  0.81493898  0.32541248  0.50446145    -0.19200
C88         C  0.82953053  0.31100611  0.52758399    -0.19400
C89         C  0.81463838  0.28405839  0.53250290     0.03600
H90         H  0.82123452  0.34691491  0.49457050     0.17400
H91         H  0.84916792  0.31927932  0.53952599     0.17400
N92         N  0.72784973  0.21388349  0.51005610     0.01100
C93         C  0.72673460  0.18919006  0.49175521     0.03700
C94         C  0.70058443  0.17295480  0.49645053    -0.19200
C95         C  0.68489265  0.18745463  0.51828599    -0.19400
C96         C  0.70176935  0.21227466  0.52641665     0.03600
H97         H  0.69366616  0.15249785  0.48512739     0.17400
H98         H  0.66369410  0.18010628  0.52798174     0.17400
O99         O  0.87350172  0.80418635  0.21676359    -0.69800
O100        O  0.87055425  0.88987202  0.22598488    -0.69800
O101        O  0.91579376  0.84597387  0.22585417    -0.69900
O102        O  0.83022692  0.84631288  0.21677693    -0.69900
O103        O  0.82535608  0.84091490  0.26659986    -0.69900
O104        O  0.91123201  0.83975430  0.27549346    -0.69900
O105        O  0.86585011  0.88439654  0.27568244    -0.69800
O106        O  0.86840595  0.79857715  0.26653048    -0.69900
Ni107      Ni  0.87301550  0.84710520  0.21963734     1.25400
Ni108      Ni  0.86784305  0.84102004  0.27295049     1.25400
C109        C  0.87098139  0.78750390  0.24020583     0.92400
C110        C  0.86392115  0.90069339  0.25178869     0.92300
C111        C  0.92705419  0.83862376  0.25144926     0.92300
C112        C  0.81394598  0.84353099  0.24026528     0.92500
O113        O  0.70632385  0.84911297  0.21850261    -0.69800
O114        O  0.62065892  0.84708936  0.23050631    -0.69800
O115        O  0.66682941  0.89189423  0.23208537    -0.69900
O116        O  0.66251031  0.80669092  0.21707898    -0.69900
O117        O  0.66970997  0.79777837  0.26615705    -0.69900
O118        O  0.67343471  0.88227082  0.28099042    -0.69900
O119        O  0.62815729  0.83813615  0.27941022    -0.69800
O120        O  0.71316149  0.84004738  0.26760910    -0.69900
Ni121      Ni  0.66351447  0.84937663  0.22280769     1.25400
Ni122      Ni  0.67109779  0.83952584  0.27532014     1.25400
C123        C  0.72352008  0.84446425  0.24116418     0.92400
C124        C  0.61079853  0.83850106  0.25634940     0.92300
C125        C  0.67437597  0.90057948  0.25859000     0.92300
C126        C  0.66575169  0.78850793  0.23930196     0.92500
O127        O  0.86393171  0.68697860  0.26890126    -0.69800
O128        O  0.85999079  0.60206864  0.28298321    -0.69800
O129        O  0.90535708  0.64618506  0.28240335    -0.69900
O130        O  0.82026596  0.64455126  0.26952063    -0.69900
O131        O  0.82732687  0.63656603  0.22046459    -0.69900
O132        O  0.91308727  0.63846265  0.23352332    -0.69900
O133        O  0.86694653  0.59364854  0.23409882    -0.69800
O134        O  0.87128333  0.67919999  0.21984908    -0.69900
Ni135      Ni  0.86237816  0.64496430  0.27771752     1.25400
Ni136      Ni  0.87022024  0.63637437  0.22524644     1.25400
C137        C  0.86818519  0.69688625  0.24217507     0.92400
C138        C  0.85923740  0.58431111  0.26042619     0.92300
C139        C  0.92291973  0.64615517  0.25960543     0.92300
C140        C  0.80996287  0.64042068  0.24299558     0.92500
O141        O  0.66123179  0.68126403  0.21539228    -0.69800
O142        O  0.66064305  0.59590656  0.22718494    -0.69800
O143        O  0.61725667  0.64126060  0.22502816    -0.69900
O144        O  0.70298786  0.63757129  0.21749201    -0.69900
O145        O  0.70756153  0.64390824  0.26715119    -0.69900
O146        O  0.62156494  0.64730356  0.27464274    -0.69900
O147        O  0.66573370  0.60171421  0.27677074    -0.69800
O148        O  0.66555306  0.68734754  0.26511633    -0.69900
Ni149      Ni  0.66005940  0.63849038  0.21957717     1.25400
Ni150      Ni  0.66496180  0.64501286  0.27279657     1.25400
C151        C  0.66368580  0.69813685  0.23841412     0.92400
C152        C  0.66705923  0.58522298  0.25328071     0.92300
C153        C  0.60583692  0.64847160  0.25040273     0.92300
C154        C  0.71918356  0.64045098  0.24112379     0.92500
N155        N  0.79539580  0.49212887  0.29298143     0.01100
C156        C  0.82169748  0.50844731  0.29403083     0.03700
C157        C  0.83769697  0.50150880  0.31977089    -0.19200
C158        C  0.82125712  0.48031317  0.33525646    -0.19400
C159        C  0.79554585  0.47486214  0.31866893     0.03600
H160        H  0.85904845  0.51116157  0.32674336     0.17400
H161        H  0.82755704  0.46970143  0.35636392     0.17400
N162        N  0.73021830  0.49342181  0.22824873     0.01100
C163        C  0.72938916  0.47699248  0.20235315     0.03700
C164        C  0.70381709  0.48324929  0.18590391    -0.19200
C165        C  0.68809382  0.50411871  0.20169787    -0.19400
C166        C  0.70438876  0.50999942  0.22745770     0.03600
H167        H  0.69692770  0.47304908  0.16487190     0.17400
H168        H  0.66692292  0.51416183  0.19501092     0.17400
N169        N  0.01631276  0.77158349  0.22443315     0.01100
C170        C  0.99941144  0.79724523  0.22282016     0.03700
C171        C  0.00379178  0.81183926  0.19566862    -0.19200
C172        C  0.02402530  0.79529149  0.17986424    -0.19400
C173        C  0.03151136  0.77093098  0.19769086     0.03600
H174        H  0.99333266  0.83255529  0.18815223     0.17400
H175        H  0.03319798  0.80100454  0.15796021     0.17400
N176        N  0.01929877  0.70552729  0.28860780     0.01100
C177        C  0.00271767  0.67933063  0.28936369     0.03700
C178        C  0.01191518  0.66119626  0.31293344    -0.19200
C179        C  0.03473384  0.67617646  0.32738239    -0.19400
C180        C  0.03890212  0.70317272  0.31237624     0.03600
H181        H  0.00259619  0.63945733  0.31928675     0.17400
H182        H  0.04704786  0.66820038  0.34690965     0.17400
N183        N  0.22939779  0.77187935  0.00334182     0.01100
C184        C  0.20438164  0.77184680  0.02130704     0.03700
C185        C  0.18635887  0.79611324  0.01461983    -0.19200
C186        C  0.20009334  0.81179950  0.99187651    -0.19400
C187        C  0.22624292  0.79681114  0.98516868     0.03600
H188        H  0.16542328  0.80198475  0.02547076     0.17400
H189        H  0.19156903  0.83188368  0.98087758     0.17400
N190        N  0.29737383  0.71065267  0.00366597     0.01100
C191        C  0.30018910  0.68722270  0.98401975     0.03700
C192        C  0.32658710  0.67195350  0.98923964    -0.19200
C193        C  0.34067186  0.68579512  0.01288702    -0.19400
C194        C  0.32261742  0.70928378  0.02154098     0.03600
H195        H  0.33467726  0.65254749  0.97717361     0.17400
H196        H  0.36176290  0.67907871  0.02311382     0.17400
O197        O  0.31864689  0.75722958  0.35198234    -0.69800
O198        O  0.40230833  0.73693083  0.34921556    -0.69800
O199        O  0.35751704  0.73948684  0.39414924    -0.69900
O200        O  0.36130465  0.75464513  0.30909669    -0.69900
O201        O  0.37344115  0.80283232  0.31722635    -0.69900
O202        O  0.36920012  0.78764649  0.40243496    -0.69900
O203        O  0.41399560  0.78501102  0.35800110    -0.69800
O204        O  0.33038900  0.80552550  0.36009317    -0.69900
Ni205      Ni  0.35976966  0.74525177  0.35107042     1.25400
Ni206      Ni  0.37248436  0.79687004  0.36002215     1.25400
C207        C  0.31094275  0.78453590  0.35630850     0.92400
C208        C  0.42159008  0.75855506  0.34968642     0.92300
C209        C  0.35923629  0.76205905  0.41189828     0.92300
C210        C  0.36774890  0.78108031  0.29934069     0.92500
O211        O  0.17420371  0.75110976  0.30546391    -0.69800
O212        O  0.18011605  0.72649621  0.38765324    -0.69800
O213        O  0.13576565  0.72439131  0.34307465    -0.69900
O214        O  0.21680040  0.75320150  0.34830350    -0.69900
O215        O  0.20076753  0.79853044  0.36232417    -0.69900
O216        O  0.11897216  0.76932776  0.35706850    -0.69900
O217        O  0.16413254  0.77155899  0.40220924    -0.69800
O218        O  0.15761147  0.79634387  0.31915239    -0.69900
Ni219      Ni  0.17707769  0.73711722  0.34585671     1.25400
Ni220      Ni  0.15949930  0.78546284  0.36098852     1.25400
C221        C  0.16515904  0.77757147  0.29889441     0.92400
C222        C  0.17618000  0.74601035  0.40827609     0.92300
C223        C  0.11416390  0.74301704  0.34613910     0.92300
C224        C  0.22200723  0.78043823  0.35586026     0.92500
O225        O  0.15796862  0.79736125  0.18989962    -0.69800
O226        O  0.16076136  0.77503552  0.10695535    -0.69800
O227        O  0.11683302  0.77542421  0.15192070    -0.69900
O228        O  0.20039819  0.79673317  0.14656842    -0.69900
O229        O  0.21213018  0.74956726  0.15975685    -0.69900
O230        O  0.12861282  0.72830727  0.16484335    -0.69900
O231        O  0.17315923  0.72801871  0.11961175    -0.69800
O232        O  0.16972059  0.75014320  0.20284831    -0.69900
Ni233      Ni  0.15827601  0.78767385  0.14810148     1.25400
Ni234      Ni  0.17107522  0.73716915  0.16200037     1.25400
C235        C  0.16360161  0.77730377  0.20983765     0.92400
C236        C  0.17096049  0.74913450  0.09987699     0.92300
C237        C  0.10933193  0.74950545  0.16256327     0.92300
C238        C  0.21981040  0.77646107  0.15255012     0.92500
O239        O  0.32935740  0.79382103  0.14570161    -0.69800
O240        O  0.41202621  0.76934010  0.15144346    -0.69800
O241        O  0.36654496  0.76838148  0.10635706    -0.69900
O242        O  0.37268831  0.79455825  0.18874044    -0.69900
O243        O  0.35788844  0.74871158  0.20396679    -0.69900
O244        O  0.35227160  0.72270417  0.12219602    -0.69900
O245        O  0.39709750  0.72371943  0.16689365    -0.69800
O246        O  0.31499233  0.74789447  0.16115902    -0.69900
Ni247      Ni  0.37095988  0.78304068  0.14719984     1.25400
Ni248      Ni  0.35528367  0.73401828  0.16385790     1.25400
C249        C  0.30883589  0.77472699  0.15275990     0.92400
C250        C  0.41783676  0.74366732  0.16352565     0.92300
C251        C  0.35517808  0.74225336  0.10099405     0.92300
C252        C  0.36605877  0.77572194  0.20969280     0.92500
N253        N  0.51693158  0.77656572  0.28809284     0.01100
C254        C  0.50108568  0.77734775  0.31449447     0.03700
C255        C  0.50984877  0.80168139  0.33156046    -0.19200
C256        C  0.53160968  0.81672291  0.31569870    -0.19400
C257        C  0.53563678  0.80128578  0.28926422     0.03600
H258        H  0.50062993  0.80834634  0.35302498     0.17400
H259        H  0.54332167  0.83700302  0.32269630     0.17400
N260        N  0.51174751  0.71052878  0.22480509     0.01100
C261        C  0.52799791  0.68440254  0.22443910     0.03700
C262        C  0.51981645  0.66693775  0.20020819    -0.19200
C263        C  0.49790848  0.68217534  0.18492153    -0.19400
C264        C  0.49321893  0.70863669  0.20011063     0.03600
H265        H  0.52924772  0.64545184  0.19398849     0.17400
H266        H  0.48638093  0.67464102  0.16478322     0.17400
O267        O  0.19213086  0.84617247  0.81637827    -0.69800
O268        O  0.21709769  0.84306100  0.89916001    -0.69800
O269        O  0.21491225  0.88736167  0.85362819    -0.69900
O270        O  0.19419064  0.80345398  0.86030187    -0.69900
O271        O  0.24104045  0.79199176  0.84660987    -0.69900
O272        O  0.26153968  0.87587753  0.83959679    -0.69900
O273        O  0.26379555  0.83138772  0.88552029    -0.69800
O274        O  0.23891967  0.83436448  0.80278543    -0.69900
Ni275      Ni  0.20305472  0.84570516  0.85811845     1.25400
Ni276      Ni  0.25312201  0.83322412  0.84335478     1.25400
C277        C  0.21167932  0.84079315  0.79613147     0.92400
C278        C  0.24340743  0.83321981  0.90575905     0.92300
C279        C  0.24034552  0.89510524  0.84221779     0.92300
C280        C  0.21445142  0.78410229  0.85450940     0.92500
O281        O  0.24190929  0.83515324  0.70358658    -0.69800
O282        O  0.27296042  0.83006629  0.62394808    -0.69800
O283        O  0.27087013  0.87430348  0.66800479    -0.69900
O284        O  0.24376557  0.79275807  0.66121061    -0.69900
O285        O  0.19936316  0.80806459  0.64326552    -0.69900
O286        O  0.22700265  0.89042665  0.64977250    -0.69900
O287        O  0.22891311  0.84510013  0.60518535    -0.69800
O288        O  0.19765375  0.85114787  0.68588423    -0.69900
Ni289      Ni  0.25901774  0.83275865  0.66459828     1.25400
Ni290      Ni  0.21176149  0.84956352  0.64507395     1.25400
C291        C  0.21482624  0.84345595  0.70777411     0.92400
C292        C  0.25515310  0.83371117  0.60155398     0.92300
C293        C  0.25239446  0.89570385  0.66274237     0.92300
C294        C  0.21716575  0.78710508  0.65170598     0.92500
O295        O  0.25006104  0.64966759  0.80622428    -0.69800
O296        O  0.27943951  0.65830111  0.88640662    -0.69800
O297        O  0.28127600  0.61363507  0.84275972    -0.69900
O298        O  0.24818072  0.69248440  0.84820359    -0.69900
O299        O  0.20486558  0.67341257  0.86564612    -0.69900
O300        O  0.23838808  0.59379498  0.86011503    -0.69900
O301        O  0.23645300  0.63927308  0.90439936    -0.69800
O302        O  0.20678823  0.63008801  0.82322462    -0.69900
Ni303      Ni  0.26635756  0.65398212  0.84550280     1.25400
Ni304      Ni  0.22020139  0.63314679  0.86426107     1.25400
C305        C  0.22371303  0.63899144  0.80160316     0.92400
C306        C  0.26166705  0.65307942  0.90847487     0.92300
C307        C  0.26430349  0.59071769  0.84779885     0.92300
C308        C  0.22122265  0.69582757  0.85740309     0.92500
O309        O  0.24456006  0.69400525  0.66294683    -0.69800
O310        O  0.27384232  0.61326380  0.66935059    -0.69800
O311        O  0.27081701  0.65784735  0.62365796    -0.69900
O312        O  0.24723768  0.65136039  0.70649986    -0.69900
O313        O  0.20182822  0.63415978  0.69288792    -0.69900
O314        O  0.22553699  0.64054663  0.61012717    -0.69900
O315        O  0.22855878  0.59621518  0.65551137    -0.69800
O316        O  0.19908218  0.67711442  0.64919475    -0.69900
Ni317      Ni  0.26087842  0.65452591  0.66587612     1.25400
Ni318      Ni  0.21229096  0.63614066  0.65117634     1.25400
C319        C  0.21730857  0.69873542  0.65503379     0.92400
C320        C  0.25470949  0.59166037  0.66696057     0.92300
C321        C  0.25058676  0.65350092  0.60346850     0.92300
C322        C  0.22086792  0.64166340  0.71313575     0.92500
N323        N  0.29747571  0.77850959  0.50846031     0.01100
C324        C  0.32381902  0.78089210  0.49254995     0.03700
C325        C  0.34079745  0.80489874  0.50272484    -0.19200
C326        C  0.32487402  0.81803122  0.52535778    -0.19400
C327        C  0.29847428  0.80182310  0.52845219     0.03600
H328        H  0.36224670  0.81263717  0.49392644     0.17400
H329        H  0.33169357  0.83767423  0.53806320     0.17400
N330        N  0.23300475  0.71275331  0.50496247     0.01100
C331        C  0.23082158  0.68777135  0.52318990     0.03700
C332        C  0.20606904  0.67056442  0.51538377    -0.19200
C333        C  0.19233229  0.68486410  0.49174966    -0.19400
C334        C  0.20893264  0.71053795  0.48573317     0.03600
H335        H  0.19843715  0.64994581  0.52621592     0.17400
H336        H  0.17218753  0.67734741  0.48014122     0.17400
O337        O  0.86480680  0.23825496  0.81308458    -0.69800
O338        O  0.86108476  0.25859346  0.89690795    -0.69800
O339        O  0.90620418  0.25778218  0.85191439    -0.69900
O340        O  0.82187748  0.23923747  0.85592367    -0.69900
O341        O  0.83201792  0.19144063  0.86808222    -0.69900
O342        O  0.91637209  0.21009189  0.86400441    -0.69900
O343        O  0.87168576  0.21093899  0.90870934    -0.69800
O344        O  0.87502838  0.19044428  0.82506101    -0.69900
Ni345      Ni  0.86339590  0.25030963  0.85427538     1.25400
Ni346      Ni  0.87443948  0.19916059  0.86717839     1.25400
C347        C  0.87028785  0.21111507  0.80547926     0.92400
C348        C  0.86216786  0.23700077  0.91624607     0.92300
C349        C  0.92474854  0.23586450  0.85362211     0.92300
C350        C  0.81327254  0.21247709  0.86261115     0.92500
O351        O  0.66042577  0.19109105  0.82827420    -0.69800
O352        O  0.66566249  0.21853315  0.91007490    -0.69800
O353        O  0.62013155  0.21548059  0.86548958    -0.69900
O354        O  0.70383454  0.19415904  0.87102502    -0.69900
O355        O  0.71631789  0.24038585  0.85488081    -0.69900
O356        O  0.63321957  0.26137581  0.84921436    -0.69900
O357        O  0.67798344  0.26451918  0.89342893    -0.69800
O358        O  0.67341364  0.23723649  0.81230070    -0.69900
Ni359      Ni  0.66174748  0.20326701  0.86956037     1.25400
Ni360      Ni  0.67543610  0.25261196  0.85209672     1.25400
C361        C  0.66647365  0.20980093  0.80706360     0.92400
C362        C  0.67603502  0.24513742  0.91484619     0.92300
C363        C  0.61313914  0.24095768  0.85360498     0.92300
C364        C  0.72359482  0.21393278  0.86356964     0.92500
O365        O  0.81313006  0.23733019  0.66898854    -0.69800
O366        O  0.89434117  0.26609712  0.67200644    -0.69800
O367        O  0.84819536  0.26511319  0.62893440    -0.69900
O368        O  0.85730367  0.23873789  0.71041146    -0.69900
O369        O  0.87352002  0.19387692  0.69521883    -0.69900
O370        O  0.86341147  0.22040209  0.61268333    -0.69900
O371        O  0.91044749  0.22153070  0.65617763    -0.69800
O372        O  0.82876535  0.19235260  0.65346951    -0.69900
Ni373      Ni  0.85289027  0.25349217  0.67040019     1.25400
Ni374      Ni  0.86987673  0.20553869  0.65352991     1.25400
C375        C  0.80774439  0.21030339  0.66080116     0.92400
C376        C  0.91571334  0.24740736  0.66783416     0.92300
C377        C  0.85115965  0.24612172  0.60764926     0.92300
C378        C  0.86680892  0.21226742  0.71617563     0.92500
O379        O  0.69971597  0.18504087  0.65487168    -0.69800
O380        O  0.61604476  0.20385853  0.66103734    -0.69800
O381        O  0.65905299  0.20449772  0.61497962    -0.69900
O382        O  0.65838948  0.18465921  0.69923608    -0.69900
O383        O  0.67002396  0.23256662  0.70945595    -0.69900
O384        O  0.67030434  0.25234722  0.62538483    -0.69900
O385        O  0.62722452  0.25159908  0.67198873    -0.69800
O386        O  0.71100272  0.23302984  0.66512860    -0.69900
Ni387      Ni  0.65758312  0.19292380  0.65685058     1.25400
Ni388      Ni  0.66979060  0.24422071  0.66808867     1.25400
C389        C  0.71893224  0.20605411  0.65945883     0.92400
C390        C  0.60836051  0.22961845  0.67117829     0.92300
C391        C  0.66821852  0.23071750  0.60656863     0.92300
C392        C  0.66441364  0.20555200  0.71799816     0.92500
N393        N  0.51385361  0.27088573  0.80006267     0.01100
C394        C  0.49433105  0.29431212  0.80374158     0.03700
C395        C  0.49923828  0.30816267  0.83098464    -0.19200
C396        C  0.52261400  0.29353299  0.84466727    -0.19400
C397        C  0.53139995  0.27102637  0.82550540     0.03600
H398        H  0.48735251  0.32737259  0.83976532     0.17400
H399        H  0.53283535  0.29934283  0.86603062     0.17400
N400        N  0.51594419  0.20548229  0.73626828     0.01100
C401        C  0.53580836  0.20273332  0.71296572     0.03700
C402        C  0.53344375  0.17464668  0.70018336    -0.19200
C403        C  0.51137463  0.15937809  0.71540952    -0.19400
C404        C  0.50076270  0.17844718  0.73720229     0.03600
H405        H  0.54621775  0.16628263  0.68131518     0.17400
H406        H  0.50293012  0.13704398  0.71021511     0.17400
N407        N  0.22350466  0.99410152  0.78306794     0.01100
C408        C  0.20014906  0.01396706  0.78530404     0.03700
C409        C  0.18365069  0.00818815  0.81094796    -0.19200
C410        C  0.19671990  0.98415892  0.82517180    -0.19400
C411        C  0.22097678  0.97582157  0.80796288     0.03600
H412        H  0.16408228  0.02031389  0.81858225     0.17400
H413        H  0.18903451  0.97350690  0.84581489     0.17400
N414        N  0.28873000  0.99151807  0.71888726     0.01100
C415        C  0.28997277  0.97314740  0.69425490     0.03700
C416        C  0.31569007  0.97901390  0.67788789    -0.19200
C417        C  0.33102561  0.00148518  0.69243993    -0.19400
C418        C  0.31440389  0.00884525  0.71743521     0.03600
H419        H  0.32277336  0.96779547  0.65757399     0.17400
H420        H  0.35214779  0.01161880  0.68539096     0.17400
N421        N  0.01807379  0.21675038  0.78906242     0.01100
C422        C  0.00331717  0.21589930  0.81612867     0.03700
C423        C  0.01332707  0.19217966  0.83358000    -0.19200
C424        C  0.03474712  0.17765758  0.81727213    -0.19400
C425        C  0.03729332  0.19275188  0.79016729     0.03600
H426        H  0.00520104  0.18557587  0.85565264     0.17400
H427        H  0.04710440  0.15788617  0.82437131     0.17400
N428        N  0.01273181  0.28178651  0.72391435     0.01100
C429        C  0.03054916  0.30707989  0.72189881     0.03700
C430        C  0.02259519  0.32425401  0.69718589    -0.19200
C431        C  0.99923730  0.30964785  0.68330281    -0.19400
C432        C  0.99347510  0.28384429  0.69980271     0.03600
H433        H  0.03308271  0.34511350  0.68973643     0.17400
H434        H  0.98751600  0.31714792  0.66321739     0.17400
O435        O  0.31842994  0.33830847  0.75981931    -0.69800
O436        O  0.39997213  0.33155902  0.78625036    -0.69800
O437        O  0.35664285  0.37709026  0.78515420    -0.69900
O438        O  0.36013637  0.29469588  0.76092821    -0.69900
O439        O  0.37575305  0.30877649  0.71514073    -0.69900
O440        O  0.37229687  0.39181609  0.73970176    -0.69900
O441        O  0.41606674  0.34550075  0.74070034    -0.69800
O442        O  0.33380457  0.35290123  0.71410020    -0.69900
Ni443      Ni  0.35846965  0.33515604  0.77474520     1.25400
Ni444      Ni  0.37532113  0.35057327  0.72587927     1.25400
C445        C  0.31280394  0.34649566  0.73277772     0.92400
C446        C  0.42107468  0.33387050  0.76678748     0.92300
C447        C  0.36078043  0.39791029  0.76542051     0.92300
C448        C  0.36845382  0.28829523  0.73425769     0.92500
O449        O  0.21232131  0.15288091  0.74779260    -0.69800
O450        O  0.13002821  0.15826877  0.77081039    -0.69800
O451        O  0.17343146  0.11308482  0.77064419    -0.69900
O452        O  0.17060171  0.19611877  0.74770692    -0.69900
O453        O  0.15684811  0.18359919  0.70099414    -0.69900
O454        O  0.15945102  0.09989182  0.72431615    -0.69900
O455        O  0.11551587  0.14608380  0.72435862    -0.69800
O456        O  0.19885122  0.13976683  0.70116798    -0.69900
Ni457      Ni  0.17183959  0.15529794  0.76094721     1.25400
Ni458      Ni  0.15686061  0.14155630  0.71111073     1.25400
C459        C  0.21903950  0.14574476  0.72090188     0.92400
C460        C  0.10954695  0.15646884  0.75057825     0.92300
C461        C  0.17002465  0.09296245  0.75039613     0.92300
C462        C  0.16356500  0.20336428  0.72072726     0.92500
O463        O  0.16937645  0.29934536  0.74892902    -0.69800
O464        O  0.17484927  0.38236875  0.77160092    -0.69800
O465        O  0.12846590  0.33849009  0.76752961    -0.69900
O466        O  0.21351364  0.34110991  0.75301995    -0.69900
O467        O  0.20547419  0.35504634  0.70524173    -0.69900
O468        O  0.12035677  0.35152277  0.71962344    -0.69900
O469        O  0.16582713  0.39551632  0.72388028    -0.69800
O470        O  0.16164116  0.31269991  0.70092927    -0.69900
Ni471      Ni  0.17157360  0.34009154  0.76211233     1.25400
Ni472      Ni  0.16274234  0.35446644  0.71083538     1.25400
C473        C  0.16495548  0.29257372  0.72133511     0.92400
C474        C  0.17484031  0.40219097  0.75045377     0.92300
C475        C  0.11072610  0.34105984  0.74485184     0.92300
C476        C  0.22328887  0.34836762  0.72689560     0.92500
O477        O  0.32792119  0.13952952  0.70191099    -0.69800
O478        O  0.41112816  0.13843994  0.72470532    -0.69800
O479        O  0.36453398  0.09551938  0.71948338    -0.69900
O480        O  0.37262425  0.18087384  0.70702141    -0.69900
O481        O  0.36033958  0.18808291  0.75513439    -0.69900
O482        O  0.35181999  0.10264839  0.76737691    -0.69900
O483        O  0.39899882  0.14588850  0.77271301    -0.69800
O484        O  0.31557281  0.14701199  0.74997474    -0.69900
Ni485      Ni  0.36977932  0.13802386  0.71170728     1.25400
Ni486      Ni  0.35649704  0.14588183  0.76316176     1.25400
C487        C  0.30825188  0.14356683  0.72233870     0.92400
C488        C  0.41859849  0.14577351  0.75157931     0.92300
C489        C  0.35322991  0.08562117  0.74423013     0.92300
C490        C  0.36749187  0.19833775  0.72911717     0.92500
N491        N  0.30411286  0.49543396  0.79456470     0.01100
C492        C  0.32903985  0.47756340  0.79742506     0.03700
C493        C  0.34564819  0.48581968  0.82236177    -0.19200
C494        C  0.33092598  0.50925633  0.83554046    -0.19400
C495        C  0.30562645  0.51476315  0.81839992     0.03600
H496        H  0.36618899  0.47550099  0.83043205     0.17400
H497        H  0.33793059  0.52107172  0.85564786     0.17400
N498        N  0.23834084  0.49641460  0.73039399     0.01100
C499        C  0.23624065  0.51478280  0.70551431     0.03700
C500        C  0.20964567  0.50953960  0.69032357    -0.19200
C501        C  0.19458339  0.48745868  0.70576480    -0.19400
C502        C  0.21225944  0.47972167  0.73010182     0.03600
H503        H  0.20176864  0.52103883  0.67021524     0.17400
H504        H  0.17301049  0.47768074  0.69964144     0.17400
C505        C  0.28162400  0.49490121  0.77159567    -0.08700
C506        C  0.26185073  0.49541928  0.75230277    -0.10200
C507        C  0.18926173  0.43134666  0.75469507    -0.08700
C508        C  0.20309920  0.45447452  0.74905140    -0.10200
C509        C  0.25016205  0.14426007  0.71365023    -0.08700
C510        C  0.27712989  0.14383927  0.71456923    -0.10200
C511        C  0.16354077  0.26154700  0.71365599    -0.08700
C512        C  0.16302655  0.23456630  0.71323882    -0.10200
C513        C  0.33791294  0.45142126  0.77988311    -0.08700
C514        C  0.34951320  0.42804434  0.77165921    -0.10200
C515        C  0.25504954  0.34912253  0.72235766    -0.08700
C516        C  0.28201710  0.34861978  0.72393330    -0.10200
C517        C  0.36979224  0.25724084  0.72634526    -0.08700
C518        C  0.36956480  0.23022307  0.72504933    -0.10200
C519        C  0.05670871  0.31578572  0.73977474    -0.08700
C520        C  0.08044225  0.32826901  0.74601297    -0.10200
C521        C  0.05895400  0.18254975  0.76800101    -0.08700
C522        C  0.08028421  0.16935551  0.75723492    -0.10200
C523        C  0.01554172  0.23896218  0.76581533    -0.08700
C524        C  0.01401800  0.25856048  0.74626740    -0.10200
C525        C  0.33828771  0.05617985  0.74415607    -0.08700
C526        C  0.32442907  0.03356756  0.73662391    -0.10200
C527        C  0.19221611  0.03935146  0.76590180    -0.08700
C528        C  0.18099957  0.06268300  0.75670368    -0.10200
C529        C  0.24604986  0.99315024  0.76035536    -0.08700
C530        C  0.26572045  0.99238878  0.74113119    -0.10200
C531        C  0.47304141  0.17041073  0.75280931    -0.08700
C532        C  0.44869608  0.15807281  0.75650323    -0.10200
C533        C  0.47127892  0.30582725  0.78342626    -0.08700
C534        C  0.44987662  0.31996194  0.77373462    -0.10200
C535        C  0.51408403  0.24919119  0.77653754    -0.08700
C536        C  0.51441094  0.22945807  0.75738530    -0.10200
C537        C  0.55767990  0.22423781  0.70109716    -0.05100
C538        C  0.57943425  0.23178608  0.68615412    -0.10200
C539        C  0.94554806  0.25485382  0.67937438    -0.08700
C540        C  0.96852606  0.26424952  0.69119971    -0.10200
C541        C  0.75022731  0.19975367  0.65854797    -0.08700
C542        C  0.77715933  0.20082871  0.65917891    -0.10200
C543        C  0.58267516  0.24630251  0.84268281    -0.08700
C544        C  0.55854859  0.25402901  0.83215080    -0.10200
C545        C  0.66515778  0.20056361  0.77645575    -0.08700
C546        C  0.66457323  0.19929777  0.74950124    -0.10200
C547        C  0.95429696  0.23840087  0.83966748    -0.08700
C548        C  0.97740047  0.23303689  0.82604705    -0.10200
C549        C  0.78177133  0.20653982  0.86432043    -0.08700
C550        C  0.75478990  0.20689795  0.86482540    -0.10200
C551        C  0.87102627  0.20417927  0.77415292    -0.08700
C552        C  0.87010522  0.20402995  0.74712318    -0.10200
C553        C  0.27484067  0.75565750  0.50640279    -0.08700
C554        C  0.25546735  0.73586880  0.50562810    -0.10200
C555        C  0.26035741  0.56271458  0.68145479    -0.08700
C556        C  0.25552296  0.53951189  0.69553474    -0.10200
C557        C  0.25379194  0.66696977  0.57362146    -0.08700
C558        C  0.24837212  0.67949600  0.54970513    -0.10200
C559        C  0.27405701  0.56145609  0.83708941    -0.08700
C560        C  0.28531321  0.53906459  0.82629389    -0.10200
C561        C  0.21381584  0.63731241  0.77114281    -0.08700
C562        C  0.21329213  0.63857975  0.74416576    -0.10200
C563        C  0.25988257  0.92564669  0.67398812    -0.08700
C564        C  0.26991571  0.94851531  0.68548244    -0.10200
C565        C  0.26449008  0.82221269  0.57246870    -0.08700
C566        C  0.27642817  0.81050068  0.55090950    -0.10200
C567        C  0.20795133  0.72927309  0.65208686    -0.08700
C568        C  0.20791743  0.75628837  0.65074028    -0.10200
C569        C  0.24323004  0.92505113  0.82874851    -0.08700
C570        C  0.23795134  0.94902994  0.81628602    -0.10200
C571        C  0.20441190  0.84397601  0.73806710    -0.08700
C572        C  0.20372680  0.84273929  0.76505207    -0.10200
C573        C  0.20803997  0.75268544  0.85729961    -0.08700
C574        C  0.20994566  0.72575602  0.85841798    -0.10200
C575        C  0.51512001  0.75411028  0.26530358    -0.08700
C576        C  0.51354578  0.73418186  0.24635621    -0.10200
C577        C  0.44733926  0.73778298  0.17656727    -0.08700
C578        C  0.46962180  0.72881567  0.18983943    -0.10200
C579        C  0.25106366  0.78337547  0.15106363    -0.08700
C580        C  0.27800774  0.78288141  0.15110391    -0.10200
C581        C  0.20021799  0.73021997  0.46094568    -0.08700
C582        C  0.18817241  0.73959401  0.43811178    -0.10200
C583        C  0.16322329  0.78541726  0.26785121    -0.08700
C584        C  0.16288651  0.78491956  0.24088565    -0.10200
C585        C  0.33328962  0.76494739  0.46564897    -0.08700
C586        C  0.34614087  0.76013215  0.44194472    -0.10200
C587        C  0.45132449  0.75473289  0.33675525    -0.08700
C588        C  0.47496557  0.75971128  0.32377758    -0.10200
C589        C  0.36855843  0.78584571  0.26752086    -0.08700
C590        C  0.36802579  0.78434402  0.24053227    -0.10200
C591        C  0.27962558  0.79110825  0.35718053    -0.08700
C592        C  0.25263930  0.79006909  0.35721130    -0.10200
C593        C  0.33079510  0.72688538  0.04801144    -0.08700
C594        C  0.34276128  0.73534510  0.07129853    -0.10200
C595        C  0.27999483  0.67767141  0.95995956    -0.08700
C596        C  0.26966329  0.66536538  0.93774358    -0.10200
C597        C  0.19659204  0.75238709  0.04662906    -0.08700
C598        C  0.18408192  0.74588178  0.07016959    -0.10200
C599        C  0.24387123  0.80676421  0.95930048    -0.08700
C600        C  0.24820279  0.82004177  0.93553878    -0.10200
C601        C  0.27380883  0.73228894  0.00418528    -0.08700
C602        C  0.25338063  0.75070012  0.00379524    -0.10200
C603        C  0.08465652  0.73469539  0.33430104    -0.08700
C604        C  0.06243806  0.72400953  0.32210048    -0.10200
C605        C  0.05644502  0.75203654  0.18888007    -0.08700
C606        C  0.07973032  0.74612541  0.17596891    -0.10200
C607        C  0.01690648  0.74932308  0.24774977    -0.08700
C608        C  0.01770293  0.72933439  0.26692394    -0.10200
C609        C  0.75301332  0.49323330  0.25089259    -0.08700
C610        C  0.77268825  0.49287517  0.27026122    -0.10200
C611        C  0.55313010  0.67507885  0.24332144    -0.08700
C612        C  0.57604864  0.66186972  0.25042040    -0.10200
C613        C  0.68039095  0.55554756  0.25484893    -0.08700
C614        C  0.69421075  0.53320988  0.24772061    -0.10200
C615        C  0.97666844  0.67049402  0.27132057    -0.08700
C616        C  0.95331927  0.65821747  0.26337950    -0.10200
C617        C  0.84608393  0.55445367  0.26481882    -0.08700
C618        C  0.83253344  0.53221665  0.27392575    -0.10200
C619        C  0.77814387  0.63993834  0.23887030    -0.08700
C620        C  0.75113811  0.63989320  0.23856606    -0.10200
C621        C  0.58082416  0.82540734  0.25954047    -0.08700
C622        C  0.55859456  0.81169114  0.26826610    -0.10200
C623        C  0.66480313  0.75690784  0.23450179    -0.08700
C624        C  0.66423176  0.72993634  0.23447751    -0.10200
C625        C  0.97770467  0.80919044  0.24393989    -0.08700
C626        C  0.95632366  0.82420127  0.25176898    -0.10200
C627        C  0.87074538  0.75561313  0.23715927    -0.08700
C628        C  0.86976234  0.72862134  0.23758454    -0.10200
C629        C  0.78213424  0.84373408  0.23721987    -0.08700
C630        C  0.75520949  0.84418760  0.23724124    -0.10200
C631        C  0.69277273  0.22952735  0.55251073    -0.08700
C632        C  0.68032699  0.23426978  0.57636550    -0.10200
C633        C  0.82493435  0.26360537  0.55626123    -0.08700
C634        C  0.83794976  0.25345140  0.57834189    -0.10200
C635        C  0.76924588  0.25722672  0.51181592    -0.08700
C636        C  0.75037648  0.23694144  0.51101915    -0.10200
C637        C  0.75474546  0.16554804  0.44628068    -0.08700
C638        C  0.74745978  0.17952002  0.46855318    -0.10200
C639        C  0.72670261  0.14233759  0.24674438    -0.08700
C640        C  0.72585100  0.14203410  0.27373657    -0.10200
C641        C  0.75455083  0.42933682  0.18029174    -0.08700
C642        C  0.74857994  0.45255365  0.19312759    -0.10200
C643        C  0.72312186  0.23033828  0.15574444    -0.08700
C644        C  0.72119885  0.25720346  0.15568074    -0.10200
C645        C  0.76380704  0.42927748  0.34068193    -0.08700
C646        C  0.77437168  0.45153093  0.32829764    -0.10200
C647        C  0.76414540  0.32647458  0.44609793    -0.08700
C648        C  0.77312405  0.31510421  0.46956128    -0.10200
C649        C  0.72183961  0.25755672  0.36406898    -0.08700
C650        C  0.72248058  0.23057498  0.36363255    -0.10200
C651        C  0.72038182  0.34550786  0.27407054    -0.08700
C652        C  0.71995763  0.34500245  0.24703209    -0.10200
C653        C  0.75286681  0.03536849  0.32910147    -0.08700
C654        C  0.75849084  0.05884353  0.34206112    -0.10200
C655        C  0.70081663  0.95237902  0.27306429    -0.08700
C656        C  0.68750071  0.93033524  0.26342516    -0.10200
C657        C  0.77702421  0.06397703  0.18441602    -0.08700
C658        C  0.78605402  0.04157801  0.19756420    -0.10200
C659        C  0.83731130  0.95391475  0.24717549    -0.08700
C660        C  0.85040576  0.93049084  0.25288888    -0.10200
C661        C  0.77939379  0.99573008  0.25253787    -0.08700
C662        C  0.75914330  0.99458471  0.27126256    -0.10200
C663        C  0.75283377  0.31740755  0.04946996    -0.08700
C664        C  0.75636246  0.32854934  0.07415192    -0.10200
C665        C  0.68911058  0.25286233  0.94380856    -0.08700
C666        C  0.70299270  0.26365210  0.96482477    -0.10200
C667        C  0.78404604  0.18303682  0.05601854    -0.08700
C668        C  0.77471500  0.16900587  0.07787702    -0.10200
C669        C  0.84878822  0.24026966  0.94598571    -0.08700
C670        C  0.83611239  0.23514133  0.96984420    -0.10200
C671        C  0.75874235  0.25902708  0.00950273    -0.08700
C672        C  0.77814636  0.23956915  0.01135734    -0.10200
loop_ 
_geom_bond_atom_site_label_1 
_geom_bond_atom_site_label_2 
_geom_bond_distance 
_geom_bond_site_symmetry_2 
_ccdc_geom_bond_type 
N1            C5   1.374       .  A
N1            C2   1.373   1_554  A
N1          C672   1.429       .  S
C2            C3   1.378   1_556  A
C2          C670   1.459       .  S
C3            C4   1.366       .  A
C3            H6   1.084   1_554  S
C4            C5   1.378       .  A
C4            H7   1.084       .  S
C5          C667   1.459       .  S
N8           C12   1.370   1_554  A
N8            C9   1.370       .  A
N8          C671   1.429       .  S
C9           C10   1.379       .  A
C9          C663   1.452       .  S
C10          C11   1.367   1_554  A
C10          H13   1.084       .  S
C11          C12   1.378       .  A
C11          H14   1.084       .  S
C12         C666   1.453       .  S
N15          C19   1.374       .  A
N15          C16   1.373   1_565  A
N15         C661   1.429       .  S
C16          C17   1.377       .  A
C16         C658   1.456       .  S
C17          C18   1.365   1_545  A
C17          H20   1.084       .  S
C18          C19   1.378       .  A
C18          H21   1.084       .  S
C19         C659   1.457       .  S
N22          C26   1.371   1_565  A
N22          C23   1.373       .  A
N22         C662   1.429       .  S
C23          C24   1.378       .  A
C23         C655   1.457       .  S
C24          C25   1.367   1_565  A
C24          H27   1.084       .  S
C25          C26   1.379       .  A
C25          H28   1.084       .  S
C26         C653   1.456       .  S
O29         Ni37   1.898       .  S
O29          C39   1.276       .  A
O30         Ni37   1.916       .  S
O30          C40   1.279       .  A
O31         Ni37   1.924       .  S
O31          C41   1.281       .  A
O32         Ni37   1.907       .  S
O32          C42   1.278       .  A
O33         Ni38   1.921       .  S
O33          C42   1.280       .  A
O34         Ni38   1.943       .  S
O34          C41   1.286       .  A
O35         Ni38   1.943       .  S
O35          C40   1.286       .  A
O36         Ni38   1.920       .  S
O36          C39   1.280       .  A
Ni37        Ni38   2.392       .  S
C39         C649   1.423       .  S
C40         C645   1.456       .  S
C41         C647   1.461       .  S
C42         C651   1.429       .  S
O43         Ni51   1.912       .  S
O43          C53   1.277       .  A
O44         Ni51   1.922       .  S
O44          C54   1.283       .  A
O45         Ni51   1.926       .  S
O45          C55   1.283       .  A
O46         Ni51   1.918       .  S
O46          C56   1.279       .  A
O47         Ni52   1.910       .  S
O47          C56   1.279       .  A
O48         Ni52   1.928       .  S
O48          C55   1.281       .  A
O49         Ni52   1.925       .  S
O49          C54   1.280       .  A
O50         Ni52   1.903       .  S
O50          C53   1.278       .  A
Ni51        Ni52   2.394       .  S
C53         C644   1.420       .  S
C54         C641   1.448       .  S
C55         C664   1.452       .  S
C56         C652   1.429       .  S
O57         Ni65   1.921       .  S
O57          C67   1.280       .  A
O58         Ni65   1.943       .  S
O58          C68   1.286       .  A
O59         Ni65   1.935       .  S
O59          C69   1.284       .  A
O60         Ni65   1.911       .  S
O60          C70   1.277       .  A
O61         Ni66   1.903       .  S
O61          C70   1.278       .  A
O62         Ni66   1.925       .  S
O62          C69   1.282       .  A
O63         Ni66   1.920       .  S
O63          C68   1.281       .  A
O64         Ni66   1.900       .  S
O64          C67   1.276       .  A
Ni65        Ni66   2.393       .  S
C67         C639   1.425       .  S
C68         C668   1.460       .  S
C69         C657   1.458       .  S
C70         C643   1.420       .  S
O71         Ni79   1.910       .  S
O71          C81   1.277       .  A
O72         Ni79   1.923       .  S
O72          C82   1.282       .  A
O73         Ni79   1.925       .  S
O73          C83   1.283       .  A
O74         Ni79   1.914       .  S
O74          C84   1.278       .  A
O75         Ni80   1.908       .  S
O75          C84   1.279       .  A
O76         Ni80   1.931       .  S
O76          C83   1.282       .  A
O77         Ni80   1.935       .  S
O77          C82   1.283       .  A
O78         Ni80   1.911       .  S
O78          C81   1.280       .  A
Ni79        Ni80   2.393       .  S
C81         C650   1.424       .  S
C82         C654   1.456       .  S
C83         C637   1.455       .  S
C84         C640   1.426       .  S
N85          C89   1.372       .  A
N85          C86   1.373       .  A
N85         C635   1.427       .  S
C86          C87   1.379       .  A
C86         C648   1.462       .  S
C87          C88   1.370       .  A
C87          H90   1.083       .  S
C88          C89   1.379       .  A
C88          H91   1.083       .  S
C89         C633   1.462       .  S
N92          C96   1.371       .  A
N92          C93   1.371       .  A
N92         C636   1.427       .  S
C93          C94   1.378       .  A
C93         C638   1.455       .  S
C94          C95   1.366       .  A
C94          H97   1.084       .  S
C95          C96   1.378       .  A
C95          H98   1.084       .  S
C96         C631   1.454       .  S
O99        Ni107   1.912       .  S
O99         C109   1.278       .  A
O100       Ni107   1.926       .  S
O100        C110   1.283       .  A
O101       Ni107   1.921       .  S
O101        C111   1.282       .  A
O102       Ni107   1.905       .  S
O102        C112   1.277       .  A
O103       Ni108   1.908       .  S
O103        C112   1.279       .  A
O104       Ni108   1.932       .  S
O104        C111   1.283       .  A
O105       Ni108   1.934       .  S
O105        C110   1.283       .  A
O106       Ni108   1.909       .  S
O106        C109   1.279       .  A
Ni107      Ni108   2.394       .  S
C109        C627   1.424       .  S
C110        C660   1.459       .  S
C111        C626   1.455       .  S
C112        C629   1.420       .  S
O113       Ni121   1.913       .  S
O113        C123   1.279       .  A
O114       Ni121   1.938       .  S
O114        C124   1.284       .  A
O115       Ni121   1.940       .  S
O115        C125   1.285       .  A
O116       Ni121   1.915       .  S
O116        C126   1.279       .  A
O117       Ni122   1.902       .  S
O117        C126   1.277       .  A
O118       Ni122   1.919       .  S
O118        C125   1.281       .  A
O119       Ni122   1.918       .  S
O119        C124   1.281       .  A
O120       Ni122   1.901       .  S
O120        C123   1.277       .  A
Ni121      Ni122   2.394       .  S
C123        C630   1.420       .  S
C124        C621   1.456       .  S
C125        C656   1.457       .  S
C126        C623   1.421       .  S
O127       Ni135   1.904       .  S
O127        C137   1.277       .  A
O128       Ni135   1.919       .  S
O128        C138   1.281       .  A
O129       Ni135   1.921       .  S
O129        C139   1.281       .  A
O130       Ni135   1.905       .  S
O130        C140   1.277       .  A
O131       Ni136   1.917       .  S
O131        C140   1.280       .  A
O132       Ni136   1.940       .  S
O132        C139   1.285       .  A
O133       Ni136   1.939       .  S
O133        C138   1.285       .  A
O134       Ni136   1.915       .  S
O134        C137   1.279       .  A
Ni135      Ni136   2.393       .  S
C137        C628   1.424       .  S
C138        C617   1.457       .  S
C139        C616   1.459       .  S
C140        C619   1.425       .  S
O141       Ni149   1.907       .  S
O141        C151   1.277       .  A
O142       Ni149   1.919       .  S
O142        C152   1.281       .  A
O143       Ni149   1.923       .  S
O143        C153   1.282       .  A
O144       Ni149   1.911       .  S
O144        C154   1.278       .  A
O145       Ni150   1.911       .  S
O145        C154   1.279       .  A
O146       Ni150   1.934       .  S
O146        C153   1.283       .  A
O147       Ni150   1.930       .  S
O147        C152   1.282       .  A
O148       Ni150   1.908       .  S
O148        C151   1.279       .  A
Ni149      Ni150   2.394       .  S
C151        C624   1.422       .  S
C152        C613   1.450       .  S
C153        C612   1.456       .  S
C154        C620   1.425       .  S
N155        C159   1.370       .  A
N155        C156   1.371       .  A
N155        C610   1.425       .  S
C156        C157   1.379       .  A
C156        C618   1.457       .  S
C157        C158   1.369       .  A
C157        H160   1.083       .  S
C158        C159   1.378       .  A
C158        H161   1.083       .  S
C159        C646   1.456       .  S
N162        C166   1.369       .  A
N162        C163   1.368       .  A
N162        C609   1.425       .  S
C163        C164   1.378       .  A
C163        C642   1.449       .  S
C164        C165   1.365       .  A
C164        H167   1.084       .  S
C165        C166   1.378       .  A
C165        H168   1.084       .  S
C166        C614   1.450       .  S
N169        C173   1.369       .  A
N169        C170   1.371   1_455  A
N169        C607   1.426       .  S
C170        C171   1.378   1_655  A
C170        C625   1.454       .  S
C171        C172   1.366       .  A
C171        H174   1.084   1_455  S
C172        C173   1.378       .  A
C172        H175   1.084       .  S
C173        C605   1.452       .  S
N176        C180   1.371       .  A
N176        C177   1.372       .  A
N176        C608   1.427       .  S
C177        C178   1.379       .  A
C177        C615   1.459   1_455  S
C178        C179   1.369       .  A
C178        H181   1.083       .  S
C179        C180   1.378       .  A
C179        H182   1.083       .  S
C180        C604   1.458       .  S
N183        C187   1.373   1_554  A
N183        C184   1.371       .  A
N183        C602   1.427       .  S
C184        C185   1.378       .  A
C184        C597   1.454       .  S
C185        C186   1.365   1_554  A
C185        H188   1.084       .  S
C186        C187   1.379       .  A
C186        H189   1.084       .  S
C187        C599   1.457       .  S
N190        C194   1.374       .  A
N190        C191   1.371   1_554  A
N190        C601   1.427       .  S
C191        C192   1.378       .  A
C191        C595   1.457       .  S
C192        C193   1.369   1_556  A
C192        H195   1.083       .  S
C193        C194   1.379       .  A
C193        H196   1.083       .  S
C194        C593   1.461       .  S
O197       Ni205   1.908       .  S
O197        C207   1.279       .  A
O198       Ni205   1.931       .  S
O198        C208   1.282       .  A
O199       Ni205   1.932       .  S
O199        C209   1.282       .  A
O200       Ni205   1.909       .  S
O200        C210   1.279       .  A
O201       Ni206   1.918       .  S
O201        C210   1.279       .  A
O202       Ni206   1.931       .  S
O202        C209   1.284       .  A
O203       Ni206   1.925       .  S
O203        C208   1.283       .  A
O204       Ni206   1.913       .  S
O204        C207   1.278       .  A
Ni205      Ni206   2.393       .  S
C207        C591   1.425       .  S
C208        C587   1.454       .  S
C209        C586   1.460       .  S
C210        C589   1.429       .  S
O211       Ni219   1.899       .  S
O211        C221   1.276       .  A
O212       Ni219   1.917       .  S
O212        C222   1.280       .  A
O213       Ni219   1.920       .  S
O213        C223   1.281       .  A
O214       Ni219   1.902       .  S
O214        C224   1.277       .  A
O215       Ni220   1.920       .  S
O215        C224   1.279       .  A
O216       Ni220   1.941       .  S
O216        C223   1.285       .  A
O217       Ni220   1.939       .  S
O217        C222   1.285       .  A
O218       Ni220   1.919       .  S
O218        C221   1.279       .  A
Ni219      Ni220   2.393       .  S
C221        C583   1.422       .  S
C222        C582   1.454       .  S
C223        C603   1.457       .  S
C224        C592   1.425       .  S
O225       Ni233   1.910       .  S
O225        C235   1.277       .  A
O226       Ni233   1.921       .  S
O226        C236   1.282       .  A
O227       Ni233   1.924       .  S
O227        C237   1.283       .  A
O228       Ni233   1.913       .  S
O228        C238   1.278       .  A
O229       Ni234   1.904       .  S
O229        C238   1.278       .  A
O230       Ni234   1.929       .  S
O230        C237   1.281       .  A
O231       Ni234   1.933       .  S
O231        C236   1.283       .  A
O232       Ni234   1.910       .  S
O232        C235   1.280       .  A
Ni233      Ni234   2.394       .  S
C235        C584   1.424       .  S
C236        C598   1.454       .  S
C237        C606   1.452       .  S
C238        C579   1.421       .  S
O239       Ni247   1.914       .  S
O239        C249   1.278       .  A
O240       Ni247   1.936       .  S
O240        C250   1.284       .  A
O241       Ni247   1.942       .  S
O241        C251   1.285       .  A
O242       Ni247   1.921       .  S
O242        C252   1.280       .  A
O243       Ni248   1.906       .  S
O243        C252   1.278       .  A
O244       Ni248   1.926       .  S
O244        C251   1.282       .  A
O245       Ni248   1.921       .  S
O245        C250   1.281       .  A
O246       Ni248   1.901       .  S
O246        C249   1.277       .  A
Ni247      Ni248   2.393       .  S
C249        C580   1.421       .  S
C250        C577   1.456       .  S
C251        C594   1.463       .  S
C252        C590   1.428       .  S
N253        C257   1.373       .  A
N253        C254   1.371       .  A
N253        C575   1.429       .  S
C254        C255   1.378       .  A
C254        C588   1.454       .  S
C255        C256   1.365       .  A
C255        H258   1.084       .  S
C256        C257   1.378       .  A
C256        H259   1.084       .  S
C257        C622   1.455       .  S
N260        C264   1.372       .  A
N260        C261   1.372       .  A
N260        C576   1.429       .  S
C261        C262   1.378       .  A
C261        C611   1.455       .  S
C262        C263   1.366       .  A
C262        H265   1.084       .  S
C263        C264   1.378       .  A
C263        H266   1.084       .  S
C264        C578   1.455       .  S
O267       Ni275   1.916       .  S
O267        C277   1.278       .  A
O268       Ni275   1.929       .  S
O268        C278   1.284       .  A
O269       Ni275   1.928       .  S
O269        C279   1.283       .  A
O270       Ni275   1.916       .  S
O270        C280   1.278       .  A
O271       Ni276   1.908       .  S
O271        C280   1.279       .  A
O272       Ni276   1.934       .  S
O272        C279   1.283       .  A
O273       Ni276   1.933       .  S
O273        C278   1.282       .  A
O274       Ni276   1.908       .  S
O274        C277   1.279       .  A
Ni275      Ni276   2.392       .  S
C277        C572   1.427       .  S
C278        C600   1.458       .  S
C279        C569   1.459       .  S
C280        C573   1.426       .  S
O281       Ni289   1.898       .  S
O281        C291   1.276       .  A
O282       Ni289   1.917       .  S
O282        C292   1.279       .  A
O283       Ni289   1.922       .  S
O283        C293   1.281       .  A
O284       Ni289   1.903       .  S
O284        C294   1.278       .  A
O285       Ni290   1.921       .  S
O285        C294   1.280       .  A
O286       Ni290   1.944       .  S
O286        C293   1.286       .  A
O287       Ni290   1.944       .  S
O287        C292   1.286       .  A
O288       Ni290   1.923       .  S
O288        C291   1.280       .  A
Ni289      Ni290   2.392       .  S
C291        C571   1.425       .  S
C292        C565   1.456       .  S
C293        C563   1.460       .  S
C294        C568   1.427       .  S
O295       Ni303   1.898       .  S
O295        C305   1.276       .  A
O296       Ni303   1.917       .  S
O296        C306   1.280       .  A
O297       Ni303   1.921       .  S
O297        C307   1.280       .  A
O298       Ni303   1.902       .  S
O298        C308   1.277       .  A
O299       Ni304   1.920       .  S
O299        C308   1.279       .  A
O300       Ni304   1.942       .  S
O300        C307   1.285       .  A
O301       Ni304   1.942       .  S
O301        C306   1.286       .  A
O302       Ni304   1.922       .  S
O302        C305   1.280       .  A
Ni303      Ni304   2.393       .  S
C305        C561   1.424       .  S
C306        C596   1.456       .  S
C307        C559   1.457       .  S
C308        C574   1.425       .  S
O309       Ni317   1.906       .  S
O309        C319   1.278       .  A
O310       Ni317   1.930       .  S
O310        C320   1.281       .  A
O311       Ni317   1.933       .  S
O311        C321   1.283       .  A
O312       Ni317   1.910       .  S
O312        C322   1.280       .  A
O313       Ni318   1.914       .  S
O313        C322   1.277       .  A
O314       Ni318   1.926       .  S
O314        C321   1.283       .  A
O315       Ni318   1.928       .  S
O315        C320   1.284       .  A
O316       Ni318   1.918       .  S
O316        C319   1.279       .  A
Ni317      Ni318   2.393       .  S
C319        C567   1.427       .  S
C320        C555   1.456       .  S
C321        C557   1.457       .  S
C322        C562   1.426       .  S
N323        C327   1.370       .  A
N323        C324   1.372       .  A
N323        C553   1.426       .  S
C324        C325   1.379       .  A
C324        C585   1.459       .  S
C325        C326   1.369       .  A
C325        H328   1.084       .  S
C326        C327   1.378       .  A
C326        H329   1.084       .  S
C327        C566   1.457       .  S
N330        C334   1.370       .  A
N330        C331   1.371       .  A
N330        C554   1.426       .  S
C331        C332   1.379       .  A
C331        C558   1.457       .  S
C332        C333   1.367       .  A
C332        H335   1.083       .  S
C333        C334   1.378       .  A
C333        H336   1.083       .  S
C334        C581   1.454       .  S
O337       Ni345   1.913       .  S
O337        C347   1.280       .  A
O338       Ni345   1.936       .  S
O338        C348   1.283       .  A
O339       Ni345   1.931       .  S
O339        C349   1.282       .  A
O340       Ni345   1.907       .  S
O340        C350   1.278       .  A
O341       Ni346   1.914       .  S
O341        C350   1.278       .  A
O342       Ni346   1.927       .  S
O342        C349   1.283       .  A
O343       Ni346   1.927       .  S
O343        C348   1.283       .  A
O344       Ni346   1.915       .  S
O344        C347   1.278       .  A
Ni345      Ni346   2.393       .  S
C347        C551   1.429       .  S
C348        C669   1.460       .  S
C349        C547   1.457       .  S
C350        C549   1.424       .  S
O351       Ni359   1.918       .  S
O351        C361   1.279       .  A
O352       Ni359   1.936       .  S
O352        C362   1.284       .  A
O353       Ni359   1.939       .  S
O353        C363   1.285       .  A
O354       Ni359   1.917       .  S
O354        C364   1.279       .  A
O355       Ni360   1.904       .  S
O355        C364   1.277       .  A
O356       Ni360   1.923       .  S
O356        C363   1.281       .  A
O357       Ni360   1.918       .  S
O357        C362   1.281       .  A
O358       Ni360   1.903       .  S
O358        C361   1.277       .  A
Ni359      Ni360   2.393       .  S
C361        C545   1.425       .  S
C362        C665   1.453       .  S
C363        C543   1.457       .  S
C364        C550   1.424       .  S
O365       Ni373   1.903       .  S
O365        C375   1.278       .  A
O366       Ni373   1.922       .  S
O366        C376   1.281       .  A
O367       Ni373   1.921       .  S
O367        C377   1.280       .  A
O368       Ni373   1.900       .  S
O368        C378   1.276       .  A
O369       Ni374   1.926       .  S
O369        C378   1.281       .  A
O370       Ni374   1.947       .  S
O370        C377   1.287       .  A
O371       Ni374   1.936       .  S
O371        C376   1.284       .  A
O372       Ni374   1.914       .  S
O372        C375   1.278       .  A
Ni373      Ni374   2.392       .  S
C375        C542   1.421       .  S
C376        C539   1.456       .  S
C377        C634   1.462       .  S
C378        C552   1.427       .  S
O379       Ni387   1.910       .  S
O379        C389   1.277       .  A
O380       Ni387   1.923       .  S
O380        C390   1.282       .  A
O381       Ni387   1.927       .  S
O381        C391   1.283       .  A
O382       Ni387   1.916       .  S
O382        C392   1.279       .  A
O383       Ni388   1.906       .  S
O383        C392   1.278       .  A
O384       Ni388   1.929       .  S
O384        C391   1.281       .  A
O385       Ni388   1.931       .  S
O385        C390   1.282       .  A
O386       Ni388   1.907       .  S
O386        C389   1.279       .  A
Ni387      Ni388   2.394       .  S
C389        C541   1.422       .  S
C390        C538   1.454       .  S
C391        C632   1.455       .  S
C392        C546   1.425       .  S
N393        C397   1.371       .  A
N393        C394   1.371       .  A
N393        C535   1.428       .  S
C394        C395   1.378       .  A
C394        C533   1.456       .  S
C395        C396   1.368       .  A
C395        H398   1.083       .  S
C396        C397   1.378       .  A
C396        H399   1.083       .  S
C397        C544   1.457       .  S
N400        C404   1.373       .  A
N400        C401   1.370       .  A
N400        C536   1.427       .  S
C401        C402   1.378       .  A
C401        C537   1.454       .  S
C402        C403   1.366       .  A
C402        H405   1.084       .  S
C403        C404   1.379       .  A
C403        H406   1.084       .  S
C404        C531   1.456       .  S
N407        C411   1.371       .  A
N407        C408   1.372   1_565  A
N407        C529   1.426       .  S
C408        C409   1.378       .  A
C408        C527   1.458       .  S
C409        C410   1.368   1_545  A
C409        H412   1.083       .  S
C410        C411   1.379       .  A
C410        H413   1.084       .  S
C411        C570   1.458       .  S
N414        C418   1.372   1_565  A
N414        C415   1.372       .  A
N414        C530   1.425       .  S
C415        C416   1.378       .  A
C415        C564   1.460       .  S
C416        C417   1.369   1_565  A
C416        H419   1.084       .  S
C417        C418   1.379       .  A
C417        H420   1.084       .  S
C418        C526   1.461       .  S
N421        C425   1.372       .  A
N421        C422   1.372       .  A
N421        C523   1.427       .  S
C422        C423   1.379       .  A
C422        C548   1.457   1_455  S
C423        C424   1.367       .  A
C423        H426   1.084       .  S
C424        C425   1.378       .  A
C424        H427   1.084       .  S
C425        C521   1.457       .  S
N428        C432   1.372   1_455  A
N428        C429   1.371       .  A
N428        C524   1.427       .  S
C429        C430   1.379       .  A
C429        C519   1.457       .  S
C430        C431   1.367   1_455  A
C430        H433   1.083       .  S
C431        C432   1.378       .  A
C431        H434   1.083       .  S
C432        C540   1.456       .  S
O435       Ni443   1.903       .  S
O435        C445   1.277       .  A
O436       Ni443   1.920       .  S
O436        C446   1.281       .  A
O437       Ni443   1.925       .  S
O437        C447   1.282       .  A
O438       Ni443   1.906       .  S
O438        C448   1.278       .  A
O439       Ni444   1.921       .  S
O439        C448   1.280       .  A
O440       Ni444   1.943       .  S
O440        C447   1.286       .  A
O441       Ni444   1.939       .  S
O441        C446   1.285       .  A
O442       Ni444   1.919       .  S
O442        C445   1.280       .  A
Ni443      Ni444   2.392       .  S
C445        C516   1.426       .  S
C446        C534   1.457       .  S
C447        C514   1.462       .  S
C448        C517   1.428       .  S
O449       Ni457   1.897       .  S
O449        C459   1.276       .  A
O450       Ni457   1.916       .  S
O450        C460   1.280       .  A
O451       Ni457   1.922       .  S
O451        C461   1.281       .  A
O452       Ni457   1.902       .  S
O452        C462   1.277       .  A
O453       Ni458   1.917       .  S
O453        C462   1.279       .  A
O454       Ni458   1.941       .  S
O454        C461   1.285       .  A
O455       Ni458   1.944       .  S
O455        C460   1.286       .  A
O456       Ni458   1.921       .  S
O456        C459   1.280       .  A
Ni457      Ni458   2.393       .  S
C459        C509   1.423       .  S
C460        C522   1.457       .  S
C461        C528   1.459       .  S
C462        C512   1.423       .  S
O463       Ni471   1.908       .  S
O463        C473   1.279       .  A
O464       Ni471   1.932       .  S
O464        C474   1.282       .  A
O465       Ni471   1.932       .  S
O465        C475   1.282       .  A
O466       Ni471   1.908       .  S
O466        C476   1.279       .  A
O467       Ni472   1.916       .  S
O467        C476   1.279       .  A
O468       Ni472   1.928       .  S
O468        C475   1.283       .  A
O469       Ni472   1.921       .  S
O469        C474   1.282       .  A
O470       Ni472   1.910       .  S
O470        C473   1.277       .  A
Ni471      Ni472   2.393       .  S
C473        C511   1.423       .  S
C474        C507   1.453       .  S
C475        C520   1.457       .  S
C476        C515   1.426       .  S
O477       Ni485   1.910       .  S
O477        C487   1.277       .  A
O478       Ni485   1.924       .  S
O478        C488   1.282       .  A
O479       Ni485   1.929       .  S
O479        C489   1.283       .  A
O480       Ni485   1.916       .  S
O480        C490   1.279       .  A
O481       Ni486   1.911       .  S
O481        C490   1.279       .  A
O482       Ni486   1.937       .  S
O482        C489   1.284       .  A
O483       Ni486   1.934       .  S
O483        C488   1.283       .  A
O484       Ni486   1.910       .  S
O484        C487   1.279       .  A
Ni485      Ni486   2.392       .  S
C487        C510   1.424       .  S
C488        C532   1.457       .  S
C489        C525   1.462       .  S
C490        C518   1.428       .  S
N491        C495   1.370       .  A
N491        C492   1.373       .  A
N491        C505   1.426       .  S
C492        C493   1.380       .  A
C492        C513   1.461       .  S
C493        C494   1.370       .  A
C493        H496   1.083       .  S
C494        C495   1.378       .  A
C494        H497   1.083       .  S
C495        C560   1.458       .  S
N498        C502   1.371       .  A
N498        C499   1.372       .  A
N498        C506   1.426       .  S
C499        C500   1.378       .  A
C499        C556   1.455       .  S
C500        C501   1.364       .  A
C500        H503   1.084       .  S
C501        C502   1.377       .  A
C501        H504   1.084       .  S
C502        C508   1.453       .  S
C505        C506   1.226       .  T
C507        C508   1.217       .  T
C509        C510   1.199       .  T
C511        C512   1.199       .  T
C513        C514   1.222       .  T
C515        C516   1.201       .  T
C517        C518   1.202       .  T
C519        C520   1.220       .  T
C521        C522   1.220       .  T
C523        C524   1.227       .  T
C525        C526   1.222       .  T
C527        C528   1.220       .  T
C529        C530   1.225       .  T
C531        C532   1.220       .  T
C533        C534   1.219       .  T
C535        C536   1.227       .  T
C537        C538   1.218       .  T
C539        C540   1.219       .  T
C541        C542   1.198       .  T
C543        C544   1.219       .  T
C545        C546   1.200       .  T
C547        C548   1.220       .  T
C549        C550   1.199       .  T
C551        C552   1.202       .  T
C553        C554   1.226       .  T
C555        C556   1.219       .  T
C557        C558   1.220       .  T
C559        C560   1.219       .  T
C561        C562   1.200       .  T
C563        C564   1.221       .  T
C565        C566   1.219       .  T
C567        C568   1.201       .  T
C569        C570   1.220       .  T
C571        C572   1.200       .  T
C573        C574   1.200       .  T
C575        C576   1.228       .  T
C577        C578   1.219       .  T
C579        C580   1.198       .  T
C581        C582   1.218       .  T
C583        C584   1.199       .  T
C585        C586   1.221       .  T
C587        C588   1.218       .  T
C589        C590   1.202       .  T
C591        C592   1.200       .  T
C593        C594   1.222       .  T
C595        C596   1.219       .  T
C597        C598   1.218       .  T
C599        C600   1.220       .  T
C601        C602   1.227       .  T
C603        C604   1.219       .  T
C605        C606   1.216       .  T
C607        C608   1.226       .  T
C609        C610   1.225       .  T
C611        C612   1.219       .  T
C613        C614   1.216       .  T
C615        C616   1.221       .  T
C617        C618   1.219       .  T
C619        C620   1.200       .  T
C621        C622   1.219       .  T
C623        C624   1.198       .  T
C625        C626   1.218       .  T
C627        C628   1.199       .  T
C629        C630   1.197       .  T
C631        C632   1.218       .  T
C633        C634   1.222       .  T
C635        C636   1.226       .  T
C637        C638   1.219       .  T
C639        C640   1.200       .  T
C641        C642   1.214       .  T
C643        C644   1.197       .  T
C645        C646   1.219       .  T
C647        C648   1.222       .  T
C649        C650   1.199       .  T
C651        C652   1.202       .  T
C653        C654   1.219       .  T
C655        C656   1.220       .  T
C657        C658   1.220       .  T
C659        C660   1.221       .  T
C661        C662   1.228       .  T
C663        C664   1.216       .  T
C665        C666   1.217       .  T
C667        C668   1.221       .  T
C669        C670   1.221       .  T
C671        C672   1.228       .  T
