geometry optimzed in LAMMPS
_audit_creation_date              2020-12-01 
_audit_creation_method            'lammps2cif' 
_symmetry_space_group_name_H-M    'P1' 
_symmetry_Int_Tables_number       1 
_symmetry_cell_setting            triclinic 
loop_ 
_symmetry_equiv_pos_as_xyz 
  x,y,z 
_cell_length_a                    34.84674912 
_cell_length_b                    26.824461718478446 
_cell_length_c                    27.571263842809074 
_cell_angle_alpha                 89.90550066672422 
_cell_angle_beta                  98.70539166010172 
_cell_angle_gamma                 89.33255962192668 
loop_ 
_atom_site_label 
_atom_site_type_symbol 
_atom_site_fract_x 
_atom_site_fract_y 
_atom_site_fract_z 
_atom_site_charge 
In1        In  0.24668253  0.25342790  0.16252190     1.36900
C2          C  0.18311783  0.20066031  0.13460406     0.77900
O3          O  0.24262913  0.24607853  0.24165423    -0.60500
O4          O  0.22234034  0.31430937  0.20599898    -0.51500
C5          C  0.32129216  0.24364454  0.19733607     0.70600
O6          O  0.29948551  0.20626768  0.18695336    -0.46300
C7          C  0.26235362  0.27794281  0.07486774     0.75300
O8          O  0.21358946  0.18118084  0.15841490    -0.58200
O9          O  0.24785302  0.30965970  0.10137246    -0.48300
O10         O  0.18557251  0.24637432  0.12488933    -0.54600
C11         C  0.22828794  0.28898415  0.24544705     0.85500
O12         O  0.30440640  0.28563164  0.19005090    -0.56500
O13         O  0.26798601  0.23480423  0.09320577    -0.59800
In14       In  0.31427281  0.23754698  0.79307631     1.36900
C15         C  0.37804775  0.18262824  0.81854226     0.77900
O16         O  0.31470250  0.23587562  0.71230409    -0.60500
O17         O  0.34058784  0.29833405  0.75129312    -0.51500
C18         C  0.23969084  0.22427743  0.76255497     0.70600
O19         O  0.26281646  0.18764655  0.77370033    -0.46300
C20         C  0.30063197  0.26720266  0.88058028     0.75300
O21         O  0.34836963  0.16488885  0.79237892    -0.58200
O22         O  0.31191199  0.29743914  0.85032863    -0.48300
O23         O  0.37447767  0.22721046  0.83156983    -0.54600
C24         C  0.33198683  0.27662184  0.71035481     0.85500
O25         O  0.25511576  0.26675257  0.76763226    -0.56500
O26         O  0.29708366  0.22260788  0.86614450    -0.59800
C27         C  0.33356094  0.30662359  0.57399442     0.86800
C28         C  0.37326573  0.27886551  0.57757918    -0.53400
C29         C  0.39728911  0.28553353  0.62134916     0.09700
C30         C  0.38020702  0.31994484  0.65744831     0.20700
C31         C  0.31721253  0.28914940  0.61994248    -0.54100
C32         C  0.34128098  0.29611490  0.66332019     0.09800
C33         C  0.34614019  0.36090153  0.58453828    -0.53700
C34         C  0.36953904  0.36793299  0.62816878     0.10400
H35         H  0.38295586  0.25754225  0.54836326     0.14900
H36         H  0.39973913  0.32554617  0.69272930     0.00700
H37         H  0.28908483  0.27163323  0.61802808     0.15200
H38         H  0.33714243  0.39164800  0.55952887     0.15000
C39         C  0.34670908  0.64100725  0.58371653     0.86800
C40         C  0.33289086  0.66080493  0.63060977    -0.53400
C41         C  0.35691084  0.64956820  0.67318244     0.09700
C42         C  0.39429369  0.62155941  0.66554312     0.20700
C43         C  0.38680556  0.66620578  0.58728855    -0.54100
C44         C  0.41191742  0.65565487  0.62976224     0.09800
C45         C  0.35567995  0.58568920  0.59352613    -0.53700
C46         C  0.38037923  0.57541512  0.63542636     0.10400
H47         H  0.30852447  0.68618918  0.63053524     0.14900
H48         H  0.41409232  0.61321548  0.70018161     0.00700
H49         H  0.39338850  0.69283643  0.56043945     0.15200
H50         H  0.34289179  0.55645624  0.56922230     0.15000
In51       In  0.26346156  0.72481400  0.17488618     1.36900
C52         C  0.19905281  0.77638989  0.14531018     0.77900
O53         O  0.28116284  0.74858568  0.10541070    -0.60500
O54         O  0.27142204  0.67078829  0.11443282    -0.51500
C55         C  0.33767729  0.73643317  0.20688999     0.70600
O56         O  0.31428657  0.77344626  0.20086702    -0.46300
C57         C  0.24493901  0.68309971  0.25510727     0.75300
O58         O  0.22778483  0.79586460  0.17203629    -0.58200
O59         O  0.23839238  0.66147205  0.21383537    -0.48300
O60         O  0.20352465  0.73119314  0.13459560    -0.54600
C61         C  0.28201709  0.70521621  0.08773846     0.85500
O62         O  0.32233910  0.69425581  0.19817615    -0.56500
O63         O  0.26031202  0.72537003  0.25460518    -0.59800
In64       In  0.32975226  0.71080151  0.79990335     1.36900
C65         C  0.39388250  0.76194660  0.82478057     0.77900
O66         O  0.31565810  0.73914396  0.86980380    -0.60500
O67         O  0.32743440  0.66067102  0.86462788    -0.51500
C68         C  0.25459389  0.71636574  0.76721060     0.70600
O69         O  0.27618466  0.75432438  0.76809707    -0.46300
C70         C  0.34918210  0.67047589  0.72005701     0.75300
O71         O  0.36340311  0.78207167  0.80141959    -0.58200
O72         O  0.35461775  0.64698189  0.76058021    -0.48300
O73         O  0.39121248  0.71630396  0.83485372    -0.54600
C74         C  0.31914293  0.69701977  0.89092417     0.85500
O75         O  0.27159064  0.67638191  0.78318475    -0.56500
O76         O  0.33492812  0.71377095  0.72154602    -0.59800
C77         C  0.22700876  0.31685351  0.38246945     0.86800
C78         C  0.18610671  0.29478621  0.37787428    -0.53400
C79         C  0.16281040  0.30449074  0.33421840     0.09700
C80         C  0.18221098  0.33636443  0.29850774     0.20700
C81         C  0.24305906  0.29736016  0.33644916    -0.54100
C82         C  0.21936316  0.30713031  0.29291975     0.09800
C83         C  0.22071278  0.37264633  0.37036456    -0.56100
C84         C  0.19706977  0.38274609  0.32738827     0.10400
H85         H  0.17718163  0.27089862  0.40588996     0.14900
H86         H  0.16331950  0.34453115  0.26312770     0.00700
H87         H  0.27120889  0.27964317  0.33705860     0.15200
H88         H  0.23478892  0.40215401  0.39319468     0.15000
C89         C  0.23998242  0.65050019  0.39012028     0.86800
C90         C  0.25782393  0.66928087  0.34542942    -0.53400
C91         C  0.23519237  0.66183954  0.30095858     0.09700
C92         C  0.19597930  0.63778344  0.30468336     0.20700
C93         C  0.20131595  0.68039693  0.38351078    -0.54100
C94         C  0.17808430  0.67267014  0.33953184     0.09800
C95         C  0.22849059  0.59638185  0.37817087    -0.53700
C96         C  0.20598727  0.58975971  0.33394806     0.10400
H97         H  0.28506362  0.68918771  0.34877337     0.14900
H98         H  0.17744217  0.63234091  0.26863441     0.00700
H99         H  0.19417106  0.70878734  0.40869914     0.15200
H100        H  0.23829690  0.56533350  0.40247045     0.15000
In101      In  0.06408312  0.22125564  0.29190280     1.36900
C102        C  0.12657385  0.27669432  0.31926506     0.77900
O103        O  0.04441689  0.23520505  0.36345356    -0.60500
O104        O  0.06575318  0.16198580  0.35030429    -0.51500
C105        C  0.48854637  0.23056681  0.26189384     0.70600
O106        O  0.01020996  0.26827906  0.27100473    -0.46300
C107        C  0.08195434  0.18271500  0.20938905     0.75300
O108        O  0.09648428  0.29469686  0.29326533    -0.58200
O109        O  0.08975314  0.15984531  0.25000236    -0.48300
O110        O  0.12409866  0.23157803  0.33096531    -0.54600
C111        C  0.05146488  0.19128039  0.37917935     0.85500
O112        O  0.50607089  0.18898824  0.26805434    -0.56500
O113        O  0.06588287  0.22479351  0.21162578    -0.59800
In114      In  0.99920288  0.20541730  0.66139561     1.36900
C115        C  0.43465233  0.25853202  0.63426398     0.77900
O116        O  0.02050597  0.22439347  0.59220316    -0.60500
O117        O  0.00142531  0.14954618  0.60069550    -0.51500
C118        C  0.07368064  0.21209814  0.69535557     0.70600
O119        O  0.05227914  0.25051069  0.68459177    -0.46300
C120        C  0.48085747  0.17009322  0.74421499     0.75300
O121        O  0.46439264  0.27732661  0.65953614    -0.58200
O122        O  0.47430021  0.14550746  0.70453160    -0.48300
O123        O  0.43860090  0.21366978  0.62211952    -0.54600
C124        C  0.01555645  0.18123503  0.57414166     0.85500
O125        O  0.05647045  0.17077479  0.68905905    -0.56500
O126        O  0.49603403  0.21212771  0.74077047    -0.59800
C127        C  0.47889543  0.14111019  0.88095153     0.86800
C128        C  0.99504499  0.16102867  0.83531843    -0.53400
C129        C  0.47165548  0.15203702  0.79155133     0.09700
C130        C  0.43461336  0.12337675  0.79670946     0.20700
C131        C  0.43788785  0.16375450  0.87636344    -0.54100
C132        C  0.41487362  0.15499717  0.83262497     0.09800
C133        C  0.47324438  0.08557107  0.86839295    -0.53700
C134        C  0.44965451  0.07643335  0.82538201     0.10400
H135        H  0.02298108  0.17872071  0.83658067     0.14900
H136        H  0.41583580  0.11596227  0.76123137     0.00700
H137        H  0.42855270  0.18709896  0.90465928     0.15200
H138        H  0.48750948  0.05551166  0.89097296     0.15000
C139        C  0.49289869  0.80846961  0.88780448     0.86800
C140        C  0.45366135  0.78180878  0.88293887    -0.53400
C141        C  0.43047729  0.78877104  0.83869569     0.09700
C142        C  0.44840798  0.82141433  0.80252489     0.20700
C143        C  0.01106559  0.78951396  0.84313081    -0.54100
C144        C  0.48752515  0.79582261  0.79880025     0.09800
C145        C  0.48301648  0.86320805  0.87362140    -0.53700
C146        C  0.45919160  0.86969526  0.83018466     0.10400
H147        H  0.44562210  0.75799834  0.91156058     0.14900
H148        H  0.42950334  0.82682510  0.76662201     0.00700
H149        H  0.04001290  0.77362973  0.84541018     0.15200
H150        H  0.49446403  0.89475190  0.89564551     0.15000
In151      In  0.07891718  0.75558030  0.29876901     1.36900
C152        C  0.14223230  0.70161760  0.32438326     0.77900
O153        O  0.08020445  0.75002413  0.21939007    -0.60500
O154        O  0.10431101  0.81535711  0.25626794    -0.51500
C155        C  0.50408964  0.74923391  0.26870105     0.70600
O156        O  0.02604283  0.71084173  0.27496168    -0.46300
C157        C  0.06253394  0.77401262  0.38665735     0.75300
O158        O  0.11193732  0.68311491  0.30012426    -0.58200
O159        O  0.07348866  0.80892031  0.36073884    -0.48300
O160        O  0.13986097  0.74726947  0.33488000    -0.54600
C161        C  0.09645068  0.79143047  0.21632357     0.85500
O162        O  0.02100440  0.79055149  0.27699852    -0.56500
O163        O  0.06293047  0.73086314  0.36834997    -0.59800
In164      In  0.01368447  0.73519091  0.66961938     1.36900
C165        C  0.44889056  0.68263220  0.64383743     0.77900
O166        O  0.01548149  0.73509532  0.75096479    -0.60500
O167        O  0.48761447  0.79671545  0.71102134    -0.51500
C168        C  0.08930986  0.71961896  0.69580780     0.70600
O169        O  0.06533405  0.68403893  0.69323295    -0.46300
C170        C  0.02306173  0.76418706  0.58073712     0.75300
O171        O  0.47931763  0.66319633  0.66790671    -0.58200
O172        O  0.01819524  0.79571992  0.61364168    -0.48300
O173        O  0.45195255  0.72803495  0.63343175    -0.54600
C174        C  0.49738708  0.77580767  0.75232874     0.85500
O175        O  0.07448272  0.76199275  0.68450152    -0.56500
O176        O  0.02309768  0.71899819  0.59389855    -0.59800
C177        C  0.08322543  0.15306818  0.07318101     0.86800
C178        C  0.06663123  0.17035389  0.11915111    -0.53400
C179        C  0.09088960  0.16287930  0.16243713     0.09700
C180        C  0.12998508  0.13854740  0.15659658     0.20700
C181        C  0.12256726  0.18056347  0.07695058    -0.54100
C182        C  0.14660094  0.17328269  0.12077229     0.09800
C183        C  0.09642662  0.09862588  0.08359560    -0.53700
C184        C  0.11978031  0.09094616  0.12718805     0.10400
H185        H  0.03830771  0.18824412  0.11734427     0.14900
H186        H  0.14950753  0.13241647  0.19191510     0.00700
H187        H  0.13194406  0.20250271  0.04802219     0.15200
H188        H  0.08740075  0.06806185  0.05880705     0.15000
C189        C  0.09798646  0.81596286  0.07955342     0.86800
C190        C  0.13937661  0.79276038  0.08496720    -0.53400
C191        C  0.16210512  0.80293141  0.12892034     0.09700
C192        C  0.14246995  0.83697246  0.16286917     0.20700
C193        C  0.08236366  0.79818804  0.12578890    -0.54100
C194        C  0.10528178  0.80939077  0.16895209     0.09800
C195        C  0.10643590  0.87177905  0.08789314    -0.53700
C196        C  0.12871342  0.88267598  0.13147954     0.10400
H197        H  0.15070459  0.77084308  0.05734780     0.14900
H198        H  0.16102181  0.84572537  0.19818011     0.00700
H199        H  0.05547546  0.77774337  0.12432007     0.15200
H200        H  0.09493005  0.90072009  0.06190757     0.15000
C201        C  0.13129329  0.03973936  0.14397191    -0.05000
C202        C  0.10659962  0.01261835  0.17012834    -0.02100
C203        C  0.10889203  0.96016486  0.17141591     0.02900
C204        C  0.13588403  0.93506069  0.14658192    -0.05000
C205        C  0.16395215  0.96236206  0.12637810    -0.02100
C206        C  0.16143718  0.01483018  0.12458541     0.02900
C207        C  0.07641020  0.03827883  0.19162850     0.37500
C208        C  0.19370560  0.93609018  0.10465047     0.37500
C209        C  0.18778215  0.04291785  0.09936001     0.35900
C210        C  0.08132436  0.93205651  0.19467240     0.35900
N211        N  0.20871659  0.06528844  0.07903164    -0.38900
N212        N  0.05912797  0.91006159  0.21328065    -0.38900
N213        N  0.21742702  0.91473807  0.08761588    -0.38300
N214        N  0.05211064  0.05838678  0.20866974    -0.38400
C215        C  0.02805668  0.77746658  0.52980051    -0.05000
C216        C  0.00540084  0.75273855  0.49067584    -0.02100
C217        C  0.01543978  0.75434505  0.44329774     0.02900
C218        C  0.04823290  0.78140657  0.43424122    -0.05000
C219        C  0.06845553  0.81074850  0.47210767    -0.02100
C220        C  0.05841596  0.80863691  0.52001863     0.02900
C221        C  0.47181107  0.72469327  0.49920226     0.37500
C222        C  0.10118401  0.84016741  0.46276040     0.37500
C223        C  0.08105031  0.83553465  0.55980358     0.35900
C224        C  0.49231867  0.72667171  0.40419436     0.35900
N225        N  0.09922821  0.85671079  0.59171513    -0.38900
N226        N  0.47393173  0.70411535  0.37349402    -0.38900
N227        N  0.12730607  0.86365953  0.45521013    -0.38300
N228        N  0.44486013  0.70225871  0.50529366    -0.38400
C229        C  0.01684950  0.80311283  0.94026045    -0.05000
C230        C  0.04560616  0.76544976  0.95313626    -0.02100
C231        C  0.07086246  0.76703537  0.99887040     0.02900
C232        C  0.06796804  0.80664373  0.03244000    -0.05000
C233        C  0.03295505  0.83540627  0.02454037    -0.02100
C234        C  0.00751373  0.83308151  0.97950074     0.02900
C235        C  0.04553062  0.72103411  0.92329532     0.37500
C236        C  0.02168512  0.86601005  0.06367697     0.37500
C237        C  0.47069405  0.85996454  0.97512302     0.35900
C238        C  0.09494274  0.72367487  0.01388190     0.35900
N239        N  0.44154922  0.88170813  0.97223752    -0.38900
N240        N  0.11348454  0.68839525  0.02572039    -0.38900
N241        N  0.01257761  0.89014728  0.09488165    -0.38300
N242        N  0.04513934  0.68496505  0.90027190    -0.38400
C243        C  0.05238023  0.15732673  0.02578768    -0.05000
C244        C  0.02054244  0.12384105  0.01911362    -0.02100
C245        C  0.49583463  0.12068569  0.97354394     0.02900
C246        C  0.00254985  0.15021288  0.93280940    -0.05000
C247        C  0.02706704  0.19192876  0.94376567    -0.02100
C248        C  0.05197949  0.19529897  0.98961073     0.02900
C249        C  0.01207525  0.09297194  0.05951433     0.37500
C250        C  0.02296882  0.23480279  0.91117926     0.37500
C251        C  0.07235414  0.24146393  0.00134157     0.35900
C252        C  0.46218691  0.08859099  0.97001497     0.35900
N253        N  0.08779107  0.27907498  0.01005921    -0.38900
N254        N  0.43552193  0.06285868  0.96743849    -0.38900
N255        N  0.01937842  0.26938167  0.88564685    -0.38300
N256        N  0.50516428  0.06806938  0.09133149    -0.38400
C257        C  0.44699555  0.92020396  0.81227286    -0.05000
C258        C  0.47114939  0.94719604  0.78537231    -0.02100
C259        C  0.46855697  0.99960583  0.78370186     0.02900
C260        C  0.44183769  0.02463442  0.80902858    -0.05000
C261        C  0.41414613  0.99726701  0.82994152    -0.02100
C262        C  0.41673342  0.94485879  0.83160943     0.02900
C263        C  0.00108063  0.92136886  0.76356793     0.37500
C264        C  0.38529977  0.02335575  0.85350504     0.37500
C265        C  0.39033784  0.91655686  0.85661233     0.35900
C266        C  0.99580907  0.02775004  0.76001094     0.35900
N267        N  0.36924982  0.89401631  0.87655445    -0.38900
N268        N  0.01780840  0.04970342  0.74103842    -0.38900
N269        N  0.36244134  0.04446660  0.87230992    -0.38300
N270        N  0.02508211  0.90083010  0.74633554    -0.38400
C271        C  0.04318328  0.17642083  0.42822363    -0.05000
C272        C  0.07335875  0.17508947  0.46854449    -0.02100
C273        C  0.06444738  0.17260723  0.51677147     0.02900
C274        C  0.02540492  0.17032364  0.52476787    -0.05000
C275        C  0.99557990  0.16664712  0.48427708    -0.02100
C276        C  0.00433685  0.17084824  0.43607940     0.02900
C277        C  0.11338961  0.17946604  0.46054755     0.37500
C278        C  0.45570337  0.16117639  0.49233546     0.37500
C279        C  0.47322065  0.17201556  0.39464529     0.35900
C280        C  0.09543798  0.17343801  0.55826601     0.35900
N281        N  0.44839423  0.17326591  0.36161811    -0.38900
N282        N  0.12036127  0.17369653  0.59116113    -0.38900
N283        N  0.42393752  0.15635814  0.49887364    -0.38300
N284        N  0.14534545  0.18294288  0.45426250    -0.38400
C285        C  0.18997306  0.43488974  0.31058227    -0.05000
C286        C  0.21851956  0.45948325  0.28860583    -0.02100
C287        C  0.22110122  0.51179285  0.29115551     0.02900
C288        C  0.19524745  0.53914036  0.31591580    -0.05000
C289        C  0.16347954  0.51509812  0.33158326    -0.02100
C290        C  0.16054742  0.46282729  0.32817702     0.02900
C291        C  0.24672351  0.43079957  0.26632093     0.37500
C292        C  0.13554176  0.54375343  0.35433368     0.37500
C293        C  0.12869825  0.43729280  0.34537378     0.35900
C294        C  0.25212996  0.53706300  0.27178348     0.35900
N295        N  0.10317505  0.41659493  0.35852564    -0.38900
N296        N  0.27689519  0.55711883  0.25625393    -0.38900
N297        N  0.11331228  0.56668744  0.37257270    -0.38300
N298        N  0.26924160  0.40829991  0.24817823    -0.38400
C299        C  0.13169103  0.71372795  0.71263321    -0.05000
C300        C  0.15847377  0.72559651  0.68078957    -0.02100
C301        C  0.19860774  0.72802739  0.69887099     0.02900
C302        C  0.21228842  0.71769552  0.74874447    -0.05000
C303        C  0.18556309  0.70515290  0.78039498    -0.02100
C304        C  0.14547641  0.70282802  0.76233312     0.02900
C305        C  0.14485708  0.73337044  0.62896555     0.37500
C306        C  0.19903526  0.69776589  0.83231106     0.37500
C307        C  0.11825843  0.69070758  0.79531658     0.35900
C308        C  0.22586446  0.74082875  0.66609314     0.35900
N309        N  0.09657566  0.68081828  0.82162650    -0.38900
N310        N  0.24760807  0.75137906  0.64004363    -0.38900
N311        N  0.20947666  0.69276548  0.87391101    -0.38300
N312        N  0.13424009  0.73873432  0.58743358    -0.38400
C313        C  0.38024525  0.74124747  0.22198995    -0.05000
C314        C  0.39534039  0.77529406  0.25883063    -0.02100
C315        C  0.43580412  0.77795274  0.27412600     0.02900
C316        C  0.46150686  0.74637889  0.25282129    -0.05000
C317        C  0.44638476  0.71247795  0.21591960    -0.02100
C318        C  0.40604677  0.71025186  0.20023605     0.02900
C319        C  0.36925995  0.80619778  0.28258438     0.37500
C320        C  0.47237134  0.68064228  0.19293412     0.37500
C321        C  0.39135373  0.67707038  0.16030074     0.35900
C322        C  0.45069932  0.81158449  0.31356769     0.35900
N323        N  0.37969546  0.65070603  0.12839518    -0.38900
N324        N  0.46252257  0.83817970  0.34521037    -0.38900
N325        N  0.49314145  0.65518534  0.17479425    -0.38300
N326        N  0.34849333  0.83079669  0.30162400    -0.38400
C327        C  0.29537544  0.69683061  0.03952343    -0.05000
C328        C  0.32452448  0.72785999  0.02563101    -0.02100
C329        C  0.33304267  0.72658262  0.97740853     0.02900
C330        C  0.31435061  0.69225392  0.94324603    -0.05000
C331        C  0.28885394  0.65706768  0.95866565    -0.02100
C332        C  0.27830251  0.66042918  0.00616398     0.02900
C333        C  0.34646759  0.76083943  0.06103579     0.37500
C334        C  0.27239557  0.61860829  0.92518114     0.37500
C335        C  0.24818437  0.62850660  0.01929270     0.35900
C336        C  0.36140571  0.76071891  0.96310484     0.35900
N337        N  0.22391597  0.60323825  0.02953607    -0.38900
N338        N  0.38382072  0.78829147  0.95192518    -0.38900
N339        N  0.25950485  0.58770885  0.89852920    -0.38300
N340        N  0.36422110  0.78695671  0.08911575    -0.38400
C341        C  0.31851310  0.64715181  0.53412894    -0.05000
C342        C  0.33234200  0.63714474  0.48911217    -0.02100
C343        C  0.30686531  0.63711622  0.44382542     0.02900
C344        C  0.26722496  0.65242018  0.44066985    -0.05000
C345        C  0.25244878  0.65630467  0.48607277    -0.02100
C346        C  0.27732353  0.65070965  0.53172128     0.02900
C347        C  0.37217471  0.62046981  0.48924520     0.37500
C348        C  0.21099727  0.66039303  0.48733474     0.37500
C349        C  0.25902659  0.64014526  0.57455619     0.35900
C350        C  0.32097193  0.61499634  0.40164173     0.35900
N351        N  0.24375415  0.63112682  0.60797000    -0.38900
N352        N  0.33217086  0.59656411  0.36843584    -0.38900
N353        N  0.17817782  0.66386250  0.48972473    -0.38300
N354        N  0.40358243  0.60624250  0.48867602    -0.38400
C355        C  0.25128733  0.30738833  0.43426429    -0.05000
C356        C  0.27802253  0.26695292  0.44502327    -0.02100
C357        C  0.30291285  0.26397260  0.49104950     0.02900
C358        C  0.30273737  0.30237501  0.52657698    -0.05000
C359        C  0.27003727  0.33546601  0.51974784    -0.02100
C360        C  0.24405499  0.33664659  0.47498706     0.02900
C361        C  0.27673130  0.22477601  0.41201292     0.37500
C362        C  0.26203366  0.36801846  0.55922429     0.37500
C363        C  0.20860991  0.36631996  0.47225126     0.35900
C364        C  0.32363572  0.21758322  0.50400600     0.35900
N365        N  0.18033589  0.38979248  0.47038716    -0.38900
N366        N  0.33926114  0.17982433  0.51404680    -0.38900
N367        N  0.25579393  0.39433533  0.59041099    -0.38300
N368        N  0.27578617  0.19073335  0.38612214    -0.38400
C369        C  0.38922154  0.52285413  0.64986015    -0.05000
C370        C  0.36454863  0.49811163  0.67783880    -0.02100
C371        C  0.36122991  0.44585129  0.67519329     0.02900
C372        C  0.38241562  0.41851435  0.64428121    -0.05000
C373        C  0.41057966  0.44262238  0.62117161    -0.02100
C374        C  0.41422832  0.49484858  0.62435030     0.02900
C375        C  0.33956483  0.52675561  0.70520794     0.37500
C376        C  0.43362595  0.41400621  0.59121750     0.37500
C377        C  0.44161262  0.52028445  0.59849610     0.35900
C378        C  0.33322044  0.42102286  0.70048844     0.35900
N379        N  0.46355340  0.54068389  0.57808979    -0.38900
N380        N  0.31061246  0.40187923  0.72076975    -0.38900
N381        N  0.45177001  0.39091273  0.56723398    -0.38300
N382        N  0.31931226  0.54925077  0.72689535    -0.38400
C383        C  0.19752158  0.21891402  0.74428389    -0.05000
C384        C  0.17472802  0.18474140  0.76624192    -0.02100
C385        C  0.13419023  0.18280793  0.75071466     0.02900
C386        C  0.11614967  0.21485487  0.71288138    -0.05000
C387        C  0.13915969  0.24802446  0.69015018    -0.02100
C388        C  0.17954735  0.25001601  0.70569707     0.02900
C389        C  0.19265994  0.15256974  0.80586388     0.37500
C390        C  0.12169908  0.27831129  0.64875211     0.37500
C391        C  0.20281295  0.28285745  0.68032601     0.35900
C392        C  0.11096424  0.14880699  0.77486643     0.35900
N393        N  0.22132115  0.30897601  0.66001235    -0.38900
N394        N  0.09247374  0.12168315  0.79413337    -0.38900
N395        N  0.10783746  0.30201390  0.61540552    -0.38300
N396        N  0.20692700  0.12678728  0.83738121    -0.38400
C397        C  0.36379745  0.23908367  0.21552871    -0.05000
C398        C  0.38632585  0.20152357  0.19696637    -0.02100
C399        C  0.42680547  0.19845698  0.21250072     0.02900
C400        C  0.44568114  0.23404346  0.24558169    -0.05000
C401        C  0.42312154  0.27151798  0.26432058    -0.02100
C402        C  0.38239863  0.27349219  0.25006201     0.02900
C403        C  0.36827388  0.16706334  0.16006378     0.37500
C404        C  0.44147308  0.30705861  0.29989639     0.37500
C405        C  0.35958381  0.30971835  0.27288498     0.35900
C406        C  0.44894322  0.15893106  0.19323168     0.35900
N407        N  0.34161186  0.33841916  0.29161396    -0.38900
N408        N  0.46636066  0.12706848  0.17807412    -0.38900
N409        N  0.45613880  0.33542787  0.32820530    -0.38300
N410        N  0.35395485  0.13973522  0.13046636    -0.38400
C411        C  0.27266109  0.28884528  0.02567519    -0.05000
C412        C  0.31184311  0.28464278  0.01850571    -0.02100
C413        C  0.32137357  0.28100427  0.97061870     0.02900
C414        C  0.29174386  0.28180560  0.92961564    -0.05000
C415        C  0.25280443  0.28975633  0.93664509    -0.02100
C416        C  0.24335371  0.29394633  0.98461038     0.02900
C417        C  0.34229243  0.28311411  0.06069456     0.37500
C418        C  0.22227785  0.29100349  0.89455622     0.37500
C419        C  0.20331285  0.30096252  0.99180673     0.35900
C420        C  0.36146540  0.27354728  0.96368304     0.35900
N421        N  0.17139905  0.30696898  0.99762190    -0.38900
N422        N  0.39347829  0.26747989  0.95828132    -0.38900
N423        N  0.19797440  0.29179228  0.86091832    -0.38300
N424        N  0.36650248  0.28232419  0.09443013    -0.38400
In425      In  0.74668327  0.25342763  0.16251958     1.36900
C426        C  0.68311785  0.20066105  0.13460138     0.77900
O427        O  0.74263027  0.24607875  0.24165257    -0.60500
O428        O  0.72234329  0.31431031  0.20599765    -0.51500
C429        C  0.82129292  0.24364424  0.19733287     0.70600
O430        O  0.79948611  0.20626723  0.18695171    -0.46300
C431        C  0.76235371  0.27794123  0.07486478     0.75300
O432        O  0.71358971  0.18118084  0.15841099    -0.58200
O433        O  0.74785269  0.30965822  0.10136900    -0.48300
O434        O  0.68557253  0.24637546  0.12488830    -0.54600
C435        C  0.72829030  0.28898505  0.24544572     0.85500
O436        O  0.80440739  0.28563132  0.19004608    -0.56500
O437        O  0.76798720  0.23480319  0.09320372    -0.59800
In438      In  0.81427336  0.23754621  0.79307430     1.36900
C439        C  0.87804820  0.18262896  0.81854292     0.77900
O440        O  0.81470586  0.23587204  0.71230283    -0.60500
O441        O  0.84058709  0.29833365  0.75129088    -0.51500
C442        C  0.73969142  0.22427850  0.76255219     0.70600
O443        O  0.76281610  0.18764699  0.77369935    -0.46300
C444        C  0.80063147  0.26720211  0.88057712     0.75300
O445        O  0.84837097  0.16488913  0.79237807    -0.58200
O446        O  0.81191347  0.29743816  0.85032656    -0.48300
O447        O  0.87447729  0.22721094  0.83157071    -0.54600
C448        C  0.83198805  0.27661983  0.71035311     0.85500
O449        O  0.75511734  0.26675310  0.76762790    -0.56500
O450        O  0.79708181  0.22260760  0.86614083    -0.59800
C451        C  0.83356196  0.30662120  0.57399276     0.86800
C452        C  0.87326647  0.27886215  0.57757793    -0.53400
C453        C  0.89728979  0.28553025  0.62134804     0.09700
C454        C  0.88020804  0.31994251  0.65744662     0.20700
C455        C  0.81721330  0.28914781  0.61994094    -0.54100
C456        C  0.84128187  0.29611317  0.66331856     0.09800
C457        C  0.84614191  0.36089885  0.58453606    -0.53700
C458        C  0.86954060  0.36793049  0.62816654     0.10400
H459        H  0.88295638  0.25753807  0.54836243     0.14900
H460        H  0.89974013  0.32554391  0.69272763     0.00700
H461        H  0.78908550  0.27163193  0.61802669     0.15200
H462        H  0.83714483  0.39164509  0.55952619     0.15000
C463        C  0.84671185  0.64100683  0.58371528     0.86800
C464        C  0.83289239  0.66080182  0.63060845    -0.53400
C465        C  0.85691196  0.64956458  0.67318120     0.09700
C466        C  0.89429553  0.62155723  0.66554222     0.20700
C467        C  0.88680804  0.66620705  0.58728938    -0.54100
C468        C  0.91191956  0.65565487  0.62976341     0.09800
C469        C  0.85568342  0.58568875  0.59352299    -0.53700
C470        C  0.88038202  0.57541356  0.63542353     0.10400
H471        H  0.80852505  0.68618505  0.63053395     0.14900
H472        H  0.91409362  0.61321254  0.70018099     0.00700
H473        H  0.89339022  0.69283915  0.56044308     0.15200
H474        H  0.84289588  0.55645632  0.56921773     0.15000
In475      In  0.76346337  0.72481648  0.17488307     1.36900
C476        C  0.69905466  0.77639240  0.14530827     0.77900
O477        O  0.78116289  0.74858479  0.10540567    -0.60500
O478        O  0.77142341  0.67078772  0.11443186    -0.51500
C479        C  0.83767868  0.73644275  0.20688475     0.70600
O480        O  0.81428606  0.77345376  0.20086112    -0.46300
C481        C  0.74494273  0.68310029  0.25510435     0.75300
O482        O  0.72778662  0.79586694  0.17203444    -0.58200
O483        O  0.73839542  0.66147330  0.21383224    -0.48300
O484        O  0.70352643  0.73119580  0.13459337    -0.54600
C485        C  0.78201739  0.70521451  0.08773548     0.85500
O486        O  0.82234253  0.69426402  0.19817240    -0.56500
O487        O  0.76031563  0.72537060  0.25460241    -0.59800
In488      In  0.82974996  0.71079573  0.79990011     1.36900
C489        C  0.89387916  0.76194168  0.82478108     0.77900
O490        O  0.81565379  0.73913866  0.86979898    -0.60500
O491        O  0.82743122  0.66066574  0.86462457    -0.51500
C492        C  0.75459217  0.71635798  0.76720371     0.70600
O493        O  0.77618252  0.75431696  0.76809023    -0.46300
C494        C  0.84918257  0.67047170  0.72005542     0.75300
O495        O  0.86339959  0.78206682  0.80142059    -0.58200
O496        O  0.85461611  0.64697652  0.76057796    -0.48300
O497        O  0.89121005  0.71629818  0.83485147    -0.54600
C498        C  0.81913907  0.69701484  0.89092000     0.85500
O499        O  0.77158904  0.67637464  0.78317907    -0.56500
O500        O  0.83492976  0.71376744  0.72154450    -0.59800
C501        C  0.72700938  0.31685386  0.38246836     0.86800
C502        C  0.68610757  0.29478573  0.37787191    -0.53400
C503        C  0.66281178  0.30449022  0.33421559     0.09700
C504        C  0.68221272  0.33636510  0.29850594     0.20700
C505        C  0.74306077  0.29736133  0.33644838    -0.54100
C506        C  0.71936543  0.30713165  0.29291847     0.09800
C507        C  0.72071304  0.37264664  0.37036407    -0.56100
C508        C  0.69707071  0.38274679  0.32738745     0.10400
H509        H  0.67718229  0.27089765  0.40588706     0.14900
H510        H  0.66332169  0.34453197  0.26312562     0.00700
H511        H  0.77121049  0.27964377  0.33705881     0.15200
H512        H  0.73478890  0.40215430  0.39319471     0.15000
C513        C  0.73998707  0.65050293  0.39011765     0.86800
C514        C  0.75782850  0.66928199  0.34542620    -0.53400
C515        C  0.73519673  0.66183972  0.30095573     0.09700
C516        C  0.69598352  0.63778441  0.30468136     0.20700
C517        C  0.70132071  0.68040037  0.38350752    -0.54100
C518        C  0.67808879  0.67267254  0.33952884     0.09800
C519        C  0.72849473  0.59638448  0.37816977    -0.53700
C520        C  0.70599104  0.58976138  0.33394741     0.10400
H521        H  0.78506775  0.68918946  0.34876942     0.14900
H522        H  0.67744632  0.63234104  0.26863261     0.00700
H523        H  0.69417561  0.70879051  0.40869618     0.15200
H524        H  0.73830105  0.56533659  0.40247012     0.15000
In525      In  0.56408386  0.22125447  0.29190099     1.36900
C526        C  0.62657527  0.27669337  0.31926174     0.77900
O527        O  0.54441984  0.23520461  0.36345298    -0.60500
O528        O  0.56575285  0.16198411  0.35030219    -0.51500
C529        C  0.98854626  0.23056777  0.26189450     0.70600
O530        O  0.51021017  0.26827790  0.27100496    -0.46300
C531        C  0.58195452  0.18271403  0.20938692     0.75300
O532        O  0.59648567  0.29469553  0.29326174    -0.58200
O533        O  0.58975430  0.15984457  0.25000028    -0.48300
O534        O  0.62409989  0.23157726  0.33096267    -0.54600
C535        C  0.55146606  0.19127936  0.37917805     0.85500
O536        O  0.00607063  0.18898922  0.26805671    -0.56500
O537        O  0.56588220  0.22479198  0.21162375    -0.59800
In538      In  0.49920321  0.20542167  0.66139317     1.36900
C539        C  0.93465249  0.25852787  0.63426414     0.77900
O540        O  0.52050401  0.22439579  0.59219855    -0.60500
O541        O  0.50142664  0.14954780  0.60069556    -0.51500
C542        C  0.57368128  0.21210230  0.69535128     0.70600
O543        O  0.55228032  0.25051500  0.68458554    -0.46300
C544        C  0.98085743  0.17008811  0.74421717     0.75300
O545        O  0.96439276  0.27732245  0.65953635    -0.58200
O546        O  0.97430218  0.14550123  0.70453428    -0.48300
O547        O  0.93860058  0.21366504  0.62212128    -0.54600
C548        C  0.51555613  0.18123609  0.57413958     0.85500
O549        O  0.55647043  0.17077920  0.68905753    -0.56500
O550        O  0.99603125  0.21212425  0.74077203    -0.59800
C551        C  0.97889495  0.14110887  0.88095426     0.86800
C552        C  0.49504424  0.16103405  0.83531641    -0.53400
C553        C  0.97165593  0.15203180  0.79155366     0.09700
C554        C  0.93461254  0.12337484  0.79671260     0.20700
C555        C  0.93788837  0.16375671  0.87636487    -0.54100
C556        C  0.91487403  0.15499852  0.83262656     0.09800
C557        C  0.97324111  0.08556956  0.86839813    -0.53700
C558        C  0.94965114  0.07643178  0.82538720     0.10400
H559        H  0.52297948  0.17872803  0.83657931     0.14900
H560        H  0.91583485  0.11596020  0.76123460     0.00700
H561        H  0.92855392  0.18710285  0.90465956     0.15200
H562        H  0.98750459  0.05551015  0.89097949     0.15000
C563        C  0.99289307  0.80846846  0.88780966     0.86800
C564        C  0.95365665  0.78180503  0.88294213    -0.53400
C565        C  0.93047315  0.78876731  0.83869840     0.09700
C566        C  0.94840345  0.82141303  0.80252922     0.20700
C567        C  0.51106960  0.78951234  0.84312540    -0.54100
C568        C  0.98752172  0.79582386  0.79880522     0.09800
C569        C  0.98300909  0.86320671  0.87362757    -0.53700
C570        C  0.95918467  0.86969378  0.83019052     0.10400
H571        H  0.94561775  0.75799296  0.91156277     0.14900
H572        H  0.92949932  0.82682377  0.76662596     0.00700
H573        H  0.54001627  0.77362632  0.84540415     0.15200
H574        H  0.99445593  0.89475069  0.89565182     0.15000
In575      In  0.57891753  0.75557525  0.29876280     1.36900
C576        C  0.64223544  0.70161758  0.32437978     0.77900
O577        O  0.58020724  0.75001995  0.21938435    -0.60500
O578        O  0.60430846  0.81535536  0.25626308    -0.51500
C579        C  0.00408956  0.74924314  0.26870590     0.70600
O580        O  0.52604442  0.71083374  0.27495441    -0.46300
C581        C  0.56253260  0.77400544  0.38665025     0.75300
O582        O  0.61194174  0.68311278  0.30011973    -0.58200
O583        O  0.57348645  0.80891413  0.36073221    -0.48300
O584        O  0.63986154  0.74726917  0.33487648    -0.54600
C585        C  0.59645098  0.79142817  0.21631869     0.85500
O586        O  0.52100321  0.79054308  0.27699367    -0.56500
O587        O  0.56293064  0.73085613  0.36834276    -0.59800
In588      In  0.51368413  0.73518583  0.66961459     1.36900
C589        C  0.94889207  0.68263388  0.64384045     0.77900
O590        O  0.51548017  0.73509019  0.75095957    -0.60500
O591        O  0.98761091  0.79671722  0.71102627    -0.51500
C592        C  0.58930835  0.71961114  0.69580463     0.70600
O593        O  0.56533188  0.68403193  0.69322972    -0.46300
C594        C  0.52306242  0.76417740  0.58073141     0.75300
O595        O  0.97931961  0.66319908  0.66790990    -0.58200
O596        O  0.51819543  0.79571181  0.61363441    -0.48300
O597        O  0.95195309  0.72803701  0.63343577    -0.54600
C598        C  0.99738524  0.77581047  0.75233381     0.85500
O599        O  0.57448245  0.76198542  0.68449761    -0.56500
O600        O  0.52309850  0.71898912  0.59389478    -0.59800
C601        C  0.58322519  0.15306821  0.07317869     0.86800
C602        C  0.56663104  0.17035309  0.11914902    -0.53400
C603        C  0.59088973  0.16287884  0.16243479     0.09700
C604        C  0.62998540  0.13854779  0.15659380     0.20700
C605        C  0.62256664  0.18056445  0.07694807    -0.54100
C606        C  0.64660076  0.17328367  0.12076951     0.09800
C607        C  0.59642715  0.09862617  0.08359286    -0.53700
C608        C  0.61978092  0.09094660  0.12718516     0.10400
H609        H  0.53830721  0.18824268  0.11734248     0.14900
H610        H  0.64950802  0.13241691  0.19191217     0.00700
H611        H  0.63194257  0.20250471  0.04801938     0.15200
H612        H  0.58740137  0.06806193  0.05880433     0.15000
C613        C  0.59798920  0.81596467  0.07954993     0.86800
C614        C  0.63937977  0.79276374  0.08496427    -0.53400
C615        C  0.66210718  0.80293389  0.12891824     0.09700
C616        C  0.64247075  0.83697307  0.16286733     0.20700
C617        C  0.58236565  0.79818764  0.12578416    -0.54100
C618        C  0.60528277  0.80938997  0.16894819     0.09800
C619        C  0.60643739  0.87178081  0.08789141    -0.53700
C620        C  0.62871398  0.88267703  0.13147859     0.10400
H621        H  0.65070893  0.77084806  0.05734451     0.14900
H622        H  0.66102185  0.84572547  0.19817896     0.00700
H623        H  0.55547787  0.77774215  0.12431392     0.15200
H624        H  0.59493160  0.90072234  0.06190625     0.15000
C625        C  0.63129267  0.03973981  0.14396993    -0.05000
C626        C  0.60659633  0.01261895  0.17012269    -0.02100
C627        C  0.60888913  0.96016558  0.17141147     0.02900
C628        C  0.63588389  0.93506135  0.14658201    -0.05000
C629        C  0.66395377  0.96236252  0.12638139    -0.02100
C630        C  0.66143849  0.01483055  0.12458743     0.02900
C631        C  0.57640351  0.03827920  0.19161663     0.37500
C632        C  0.69370886  0.93609034  0.10465703     0.37500
C633        C  0.68778462  0.04291769  0.09936335     0.35900
C634        C  0.58131895  0.93205714  0.19466366     0.35900
N635        N  0.70871985  0.06528763  0.07903564    -0.38900
N636        N  0.55912061  0.91006186  0.21326821    -0.38900
N637        N  0.71743139  0.91473788  0.08762487    -0.38300
N638        N  0.55210106  0.05838687  0.20865254    -0.38400
C639        C  0.52805776  0.77745504  0.52979454    -0.05000
C640        C  0.50540190  0.75272643  0.49067019    -0.02100
C641        C  0.51544001  0.75433401  0.44329167     0.02900
C642        C  0.54823177  0.78139795  0.43423430    -0.05000
C643        C  0.56845444  0.81073987  0.47210062    -0.02100
C644        C  0.55841675  0.80862571  0.52001231     0.02900
C645        C  0.97180864  0.72470782  0.49920693     0.37500
C646        C  0.60118120  0.84016159  0.46275228     0.37500
C647        C  0.58105378  0.83551965  0.55979782     0.35900
C648        C  0.99231767  0.72668437  0.40419985     0.35900
N649        N  0.59923424  0.85669220  0.59170985    -0.38900
N650        N  0.97393009  0.70412936  0.37349900    -0.38900
N651        N  0.62730171  0.86365620  0.45520110    -0.38300
N652        N  0.94485639  0.70227538  0.50529705    -0.38400
C653        C  0.51685507  0.80311432  0.94025514    -0.05000
C654        C  0.54561213  0.76545189  0.95313143    -0.02100
C655        C  0.57086791  0.76703798  0.99886587     0.02900
C656        C  0.56797206  0.80664579  0.03243558    -0.05000
C657        C  0.53295859  0.83540726  0.02453537    -0.02100
C658        C  0.50751819  0.83308247  0.97949514     0.02900
C659        C  0.54553627  0.72103519  0.92329204     0.37500
C660        C  0.52168702  0.86600955  0.06367201     0.37500
C661        C  0.97069000  0.85996443  0.97512964     0.35900
C662        C  0.59494895  0.72367815  0.01387764     0.35900
N663        N  0.94154565  0.88170902  0.97224481    -0.38900
N664        N  0.61349148  0.68839919  0.02571641    -0.38900
N665        N  0.51257800  0.89014553  0.09487662    -0.38300
N666        N  0.54514448  0.68496469  0.90027074    -0.38400
C667        C  0.55237978  0.15732645  0.02578567    -0.05000
C668        C  0.52054326  0.12383885  0.01911034    -0.02100
C669        C  0.99583314  0.12068818  0.97354765     0.02900
C670        C  0.50255003  0.15021332  0.93280700    -0.05000
C671        C  0.52706509  0.19193096  0.94376529    -0.02100
C672        C  0.55197724  0.19530080  0.98961064     0.02900
C673        C  0.51207628  0.09296856  0.05951030     0.37500
C674        C  0.52296470  0.23480662  0.91118098     0.37500
C675        C  0.57234909  0.24146718  0.00134468     0.35900
C676        C  0.96218328  0.08859739  0.97002050     0.35900
N677        N  0.58778366  0.27907925  0.01006557    -0.38900
N678        N  0.93551640  0.06286852  0.96744557    -0.38900
N679        N  0.51937247  0.26938685  0.88565038    -0.38300
N680        N  0.00516351  0.06807376  0.09133637    -0.38400
C681        C  0.94698896  0.92020257  0.81227864    -0.05000
C682        C  0.97114300  0.94719381  0.78537764    -0.02100
C683        C  0.96855150  0.99960356  0.78370714     0.02900
C684        C  0.94183308  0.02463305  0.80903435    -0.05000
C685        C  0.91414111  0.99726681  0.82994759    -0.02100
C686        C  0.91672759  0.94485852  0.83161592     0.02900
C687        C  0.50108706  0.92137160  0.76356219     0.37500
C688        C  0.88529477  0.02335687  0.85351007     0.37500
C689        C  0.89033212  0.91655780  0.85662007     0.35900
C690        C  0.49581421  0.02775334  0.76000608     0.35900
N691        N  0.86924417  0.89401842  0.87656336    -0.38900
N692        N  0.51781319  0.04970773  0.74103387    -0.38900
N693        N  0.86243622  0.04446892  0.87231374    -0.38300
N694        N  0.52508825  0.90083262  0.74632942    -0.38400
C695        C  0.54318324  0.17641969  0.42822190    -0.05000
C696        C  0.57335868  0.17508168  0.46854273    -0.02100
C697        C  0.56444698  0.17260076  0.51676975     0.02900
C698        C  0.52540422  0.17032275  0.52476596    -0.05000
C699        C  0.49557897  0.16665116  0.48427499    -0.02100
C700        C  0.50433617  0.17085362  0.43607758     0.02900
C701        C  0.61339009  0.17945034  0.46054581     0.37500
C702        C  0.95570460  0.16116960  0.49233779     0.37500
C703        C  0.97322162  0.17200135  0.39464661     0.35900
C704        C  0.59543751  0.17342799  0.55826452     0.35900
N705        N  0.94839555  0.17324414  0.36161879    -0.38900
N706        N  0.62036061  0.17368407  0.59115993    -0.38900
N707        N  0.92393895  0.15634973  0.49887621    -0.38300
N708        N  0.64534637  0.18292069  0.45426058    -0.38400
C709        C  0.68997495  0.43489090  0.31058192    -0.05000
C710        C  0.71852223  0.45948389  0.28860635    -0.02100
C711        C  0.72110488  0.51179338  0.29115666     0.02900
C712        C  0.69525107  0.53914163  0.31591617    -0.05000
C713        C  0.66348251  0.51510019  0.33158290    -0.02100
C714        C  0.66054981  0.46282930  0.32817695     0.02900
C715        C  0.74672612  0.43079980  0.26632181     0.37500
C716        C  0.63554417  0.54375651  0.35433141     0.37500
C717        C  0.62870066  0.43729555  0.34537453     0.35900
C718        C  0.75213454  0.53706272  0.27178577     0.35900
N719        N  0.60317763  0.41659811  0.35852728    -0.38900
N720        N  0.77690050  0.55711800  0.25625721    -0.38900
N721        N  0.61331405  0.56669133  0.37256856    -0.38300
N722        N  0.76924432  0.40830015  0.24817931    -0.38400
C723        C  0.63168918  0.71371878  0.71262981    -0.05000
C724        C  0.65847137  0.72557972  0.68078329    -0.02100
C725        C  0.69860538  0.72801278  0.69886352     0.02900
C726        C  0.71228672  0.71768729  0.74873815    -0.05000
C727        C  0.68556187  0.70515186  0.78039160    -0.02100
C728        C  0.64547492  0.70282783  0.76233149     0.02900
C729        C  0.64485357  0.73334507  0.62895821     0.37500
C730        C  0.69903492  0.69777241  0.83230859     0.37500
C731        C  0.61825705  0.69071887  0.79531848     0.35900
C732        C  0.72586100  0.74081305  0.66608400     0.35900
N733        N  0.59657441  0.68083933  0.82163158    -0.38900
N734        N  0.74760332  0.75136381  0.64003296    -0.38900
N735        N  0.70947725  0.69277807  0.87390904    -0.38300
N736        N  0.63423479  0.73870200  0.58742577    -0.38400
C737        C  0.88024640  0.74126026  0.22198450    -0.05000
C738        C  0.89534051  0.77531112  0.25882175    -0.02100
C739        C  0.93580387  0.77796859  0.27412069     0.02900
C740        C  0.96150722  0.74639019  0.25282219    -0.05000
C741        C  0.94638631  0.71248712  0.21592191    -0.02100
C742        C  0.90604882  0.71026204  0.20023494     0.02900
C743        C  0.86925947  0.80622163  0.28256770     0.37500
C744        C  0.97237365  0.68064780  0.19294149     0.37500
C745        C  0.89135735  0.67707924  0.16030002     0.35900
C746        C  0.95069796  0.81160399  0.31355970     0.35900
N747        N  0.87970037  0.65071417  0.12839451    -0.38900
N748        N  0.96252049  0.83820227  0.34520004    -0.38900
N749        N  0.99314434  0.65518791  0.17480574    -0.38300
N750        N  0.84849251  0.83082655  0.30160079    -0.38400
C751        C  0.79537495  0.69682706  0.03952045    -0.05000
C752        C  0.82452394  0.72785561  0.02562687    -0.02100
C753        C  0.83304025  0.72657869  0.97740365     0.02900
C754        C  0.81434724  0.69224993  0.94324192    -0.05000
C755        C  0.78885059  0.65706427  0.95866256    -0.02100
C756        C  0.77830070  0.66042590  0.00616168     0.02900
C757        C  0.84646910  0.76083350  0.06103137     0.37500
C758        C  0.77239010  0.61860604  0.92517803     0.37500
C759        C  0.74818311  0.62850354  0.01929218     0.35900
C760        C  0.86140148  0.76071661  0.96309819     0.35900
N761        N  0.72391524  0.60323518  0.02953702    -0.38900
N762        N  0.88381465  0.78829114  0.95191737    -0.38900
N763        N  0.75949761  0.58770761  0.89852603    -0.38300
N764        N  0.86422443  0.78694930  0.08911108    -0.38400
C765        C  0.81851654  0.64715290  0.53412730    -0.05000
C766        C  0.83234657  0.63714936  0.48911066    -0.02100
C767        C  0.80687059  0.63712176  0.44382328     0.02900
C768        C  0.76722964  0.65242358  0.44066723    -0.05000
C769        C  0.75245261  0.65630461  0.48606979    -0.02100
C770        C  0.77732676  0.65070823  0.53171860     0.02900
C771        C  0.87217989  0.62047652  0.48924426     0.37500
C772        C  0.71100079  0.66039059  0.48733045     0.37500
C773        C  0.75902935  0.64013923  0.57455207     0.35900
C774        C  0.82097877  0.61500420  0.40163961     0.35900
N775        N  0.74375652  0.63111684  0.60796460    -0.38900
N776        N  0.83217943  0.59657376  0.36843401    -0.38900
N777        N  0.67818098  0.66385799  0.48971885    -0.38300
N778        N  0.90358816  0.60625099  0.48867574    -0.38400
C779        C  0.75128751  0.30738832  0.43426338    -0.05000
C780        C  0.77802136  0.26695164  0.44502233    -0.02100
C781        C  0.80291248  0.26397099  0.49104794     0.02900
C782        C  0.80273808  0.30237354  0.52657551    -0.05000
C783        C  0.77003865  0.33546581  0.51974671    -0.02100
C784        C  0.74405603  0.33664700  0.47498622     0.02900
C785        C  0.77672724  0.22477388  0.41201272     0.37500
C786        C  0.76203625  0.36801937  0.55922298     0.37500
C787        C  0.70861114  0.36632064  0.47225124     0.35900
C788        C  0.82363557  0.21758162  0.50400346     0.35900
N789        N  0.68033728  0.38979330  0.47038819    -0.38900
N790        N  0.83926128  0.17982273  0.51404332    -0.38900
N791        N  0.75579762  0.39433735  0.59040937    -0.38300
N792        N  0.77577927  0.19073058  0.38612244    -0.38400
C793        C  0.88922411  0.52285203  0.64985591    -0.05000
C794        C  0.86455281  0.49810950  0.67783690    -0.02100
C795        C  0.86123389  0.44584911  0.67519173     0.02900
C796        C  0.88241780  0.41851198  0.64427773    -0.05000
C797        C  0.91057953  0.44262018  0.62116424    -0.02100
C798        C  0.91422854  0.49484631  0.62434273     0.02900
C799        C  0.83957017  0.52675320  0.70520784     0.37500
C800        C  0.93362210  0.41400441  0.59120521     0.37500
C801        C  0.94161042  0.52028200  0.59848455     0.35900
C802        C  0.83322493  0.42102112  0.70048812     0.35900
N803        N  0.96354921  0.54068121  0.57807489    -0.38900
N804        N  0.81061704  0.40187818  0.72077009    -0.38900
N805        N  0.95176275  0.39091121  0.56721734    -0.38300
N806        N  0.81931811  0.54924733  0.72689681    -0.38400
C807        C  0.69752207  0.21891635  0.74428106    -0.05000
C808        C  0.67472750  0.18474646  0.76624093    -0.02100
C809        C  0.63418971  0.18281411  0.75071342     0.02900
C810        C  0.61615031  0.21485833  0.71287709    -0.05000
C811        C  0.63916128  0.24802509  0.69014410    -0.02100
C812        C  0.67954869  0.25001735  0.70569284     0.02900
C813        C  0.69265814  0.15257784  0.80586616     0.37500
C814        C  0.62170193  0.27830843  0.64874280     0.37500
C815        C  0.70281462  0.28286044  0.68032396     0.35900
C816        C  0.61096236  0.14881794  0.77486863     0.35900
N817        N  0.72132305  0.30898115  0.66001287    -0.38900
N818        N  0.59247063  0.12169825  0.79413848    -0.38900
N819        N  0.60784158  0.30200827  0.61539358    -0.38300
N820        N  0.70692403  0.12679803  0.83738639    -0.38400
C821        C  0.86379803  0.23908370  0.21552623    -0.05000
C822        C  0.88632672  0.20152254  0.19696604    -0.02100
C823        C  0.92680613  0.19845608  0.21250174     0.02900
C824        C  0.94568131  0.23404410  0.24558131    -0.05000
C825        C  0.92312146  0.27151974  0.26431796    -0.02100
C826        C  0.88239869  0.27349343  0.25005864     0.02900
C827        C  0.86827532  0.16706066  0.16006473     0.37500
C828        C  0.94147254  0.30706200  0.29989242     0.37500
C829        C  0.85958340  0.30971997  0.27288042     0.35900
C830        C  0.94894421  0.15892829  0.19323611     0.35900
N831        N  0.84161110  0.33842095  0.29160866    -0.38900
N832        N  0.96636222  0.12706426  0.17808183    -0.38900
N833        N  0.95613790  0.33543255  0.32820023    -0.38300
N834        N  0.85395697  0.13973099  0.13046837    -0.38400
C835        C  0.77265985  0.28884306  0.02567149    -0.05000
C836        C  0.81184218  0.28464719  0.01850160    -0.02100
C837        C  0.82137262  0.28101098  0.97061438     0.02900
C838        C  0.79174244  0.28180522  0.92961184    -0.05000
C839        C  0.75280221  0.28974759  0.93664160    -0.02100
C840        C  0.74335152  0.29393703  0.98460683     0.02900
C841        C  0.84229182  0.28312091  0.06069015     0.37500
C842        C  0.72227510  0.29098706  0.89455313     0.37500
C843        C  0.70330984  0.30094409  0.99180333     0.35900
C844        C  0.86146521  0.27356315  0.96367791     0.35900
N845        N  0.67139523  0.30694281  0.99761836    -0.38900
N846        N  0.89347864  0.26750332  0.95827516    -0.38900
N847        N  0.69797126  0.29176971  0.86091559    -0.38300
N848        N  0.86650212  0.28233195  0.09442547    -0.38400
loop_ 
_geom_bond_atom_site_label_1 
_geom_bond_atom_site_label_2 
_geom_bond_distance 
_geom_bond_site_symmetry_2 
_ccdc_geom_bond_type 
In1           O3   2.216       .  S
In1           O4   2.260       .  S
In1          O12   2.225       .  S
In1           O6   2.238       .  S
In1           O8   2.261       .  S
In1           O9   2.266       .  S
In1          O10   2.233       .  S
In1          O13   2.208       .  S
C2            O8   1.267       .  A
C2           O10   1.261       .  A
C2          C182   1.476       .  S
O3           C11   1.260       .  A
O4           C11   1.270       .  A
C5           O12   1.266       .  A
C5            O6   1.272       .  A
C5          C397   1.494       .  S
C7            O9   1.272       .  A
C7           O13   1.263       .  A
C7          C411   1.484       .  S
C11          C82   1.473       .  S
In14         O16   2.230       .  S
In14         O17   2.275       .  S
In14         O25   2.209       .  S
In14         O19   2.250       .  S
In14         O21   2.272       .  S
In14         O22   2.264       .  S
In14         O23   2.217       .  S
In14         O26   2.224       .  S
C15          O21   1.266       .  A
C15          O23   1.259       .  A
C15         C132   1.474       .  S
O16          C24   1.259       .  A
O17          C24   1.268       .  A
C18          O25   1.264       .  A
C18          O19   1.271       .  A
C18         C383   1.488       .  S
C20          O22   1.270       .  A
C20          O26   1.263       .  A
C20         C414   1.484       .  S
C24          C32   1.479       .  S
C27          C28   1.553       .  S
C27          C33   1.541       .  S
C27          C31   1.540       .  S
C27         C358   1.567       .  S
C28          H35   1.081       .  S
C28          C29   1.374       .  D
C29         C115   1.478       .  S
C29          C30   1.538       .  S
C30          C34   1.530       .  S
C30          C32   1.537       .  S
C30          H36   1.111       .  S
C31          H37   1.086       .  S
C31          C32   1.367       .  D
C33          H38   1.087       .  S
C33          C34   1.362       .  D
C34         C372   1.482       .  S
C39          C40   1.540       .  S
C39          C45   1.528       .  S
C39          C43   1.549       .  S
C39         C341   1.565       .  S
C40          H47   1.082       .  S
C40          C41   1.366       .  D
C41          C70   1.470       .  S
C41          C42   1.538       .  S
C42          C46   1.534       .  S
C42          C44   1.543       .  S
C42          H48   1.111       .  S
C43          H49   1.079       .  S
C43          C44   1.378       .  D
C44         C165   1.485       .  S
C45          H50   1.087       .  S
C45          C46   1.358       .  D
C46         C369   1.481       .  S
In51         O53   2.195       .  S
In51         O54   2.257       .  S
In51         O62   2.203       .  S
In51         O56   2.242       .  S
In51         O58   2.258       .  S
In51         O59   2.262       .  S
In51         O60   2.217       .  S
In51         O63   2.217       .  S
C52          O58   1.268       .  A
C52          O60   1.262       .  A
C52         C191   1.473       .  S
O53          C61   1.264       .  A
O54          C61   1.272       .  A
C55          O62   1.265       .  A
C55          O56   1.272       .  A
C55         C313   1.486       .  S
C57          O59   1.269       .  A
C57          O63   1.261       .  A
C57          C91   1.473       .  S
C61         C327   1.490       .  S
In64         O66   2.195       .  S
In64         O67   2.244       .  S
In64         O75   2.221       .  S
In64         O69   2.251       .  S
In64         O71   2.252       .  S
In64         O72   2.261       .  S
In64         O73   2.218       .  S
In64         O76   2.196       .  S
C65          O71   1.270       .  A
C65          O73   1.263       .  A
C65         C141   1.471       .  S
O66          C74   1.266       .  A
O67          C74   1.272       .  A
C68          O75   1.265       .  A
C68          O69   1.271       .  A
C68         C302   1.485       .  S
C70          O72   1.270       .  A
C70          O76   1.261       .  A
C74         C330   1.483       .  S
C77          C78   1.537       .  S
C77          C83   1.539       .  S
C77          C81   1.551       .  S
C77         C355   1.564       .  S
C78          H85   1.086       .  S
C78          C79   1.369       .  D
C79         C102   1.478       .  S
C79          C80   1.539       .  S
C80          C84   1.531       .  S
C80          C82   1.534       .  S
C80          H86   1.111       .  S
C81          H87   1.083       .  S
C81          C82   1.373       .  D
C83          H88   1.087       .  S
C83          C84   1.362       .  D
C84         C285   1.479       .  S
C89          C90   1.548       .  S
C89          C95   1.533       .  S
C89          C93   1.547       .  S
C89         C344   1.564       .  S
C90          H97   1.086       .  S
C90          C91   1.370       .  D
C91          C92   1.535       .  S
C92          C96   1.527       .  S
C92          C94   1.536       .  S
C92          H98   1.111       .  S
C93          H99   1.083       .  S
C93          C94   1.370       .  D
C94         C152   1.469       .  S
C95         H100   1.087       .  S
C95          C96   1.359       .  D
C96         C288   1.479       .  S
In101       O103   2.215       .  S
In101       O104   2.255       .  S
In101       O106   2.250       .  S
In101       O108   2.280       .  S
In101       O109   2.266       .  S
In101       O110   2.223       .  S
In101       O113   2.226       .  S
In101       O536   2.215       .  S
C102        O108   1.267       .  A
C102        O110   1.259       .  A
O103        C111   1.263       .  A
O104        C111   1.270       .  A
C105        O112   1.264       .  A
C105        O530   1.272       .  A
C105        C400   1.495       .  S
O106        C529   1.272   1_455  A
C107        O109   1.267       .  A
C107        O113   1.260       .  A
C107        C179   1.475       .  S
C111        C271   1.480       .  S
O112       In525   2.215       .  S
In114       O116   2.210   1_655  S
In114       O117   2.258   1_655  S
In114       O125   2.218   1_655  S
In114       O119   2.234   1_655  S
In114       O545   2.263       .  S
In114       O546   2.256       .  S
In114       O547   2.231       .  S
In114       O550   2.215       .  S
C115        O121   1.268       .  A
C115        O123   1.261       .  A
O116        C124   1.264       .  A
O117        C124   1.272       .  A
C118        O125   1.266       .  A
C118        O119   1.273       .  A
C118        C386   1.488       .  S
C120        O122   1.271       .  A
C120        O126   1.260       .  A
C120        C129   1.473       .  S
O121       In538   2.263       .  S
O122       In538   2.256       .  S
O123       In538   2.231       .  S
C124        C274   1.482       .  S
O126       In538   2.215       .  S
C127        C133   1.538       .  S
C127        C131   1.534       .  S
C127        C552   1.551       .  S
C127        C670   1.560       .  S
C128        C551   1.551       .  S
C128        H135   1.084   1_655  S
C128        C553   1.373       .  D
C129        C130   1.535       .  S
C129        C552   1.373       .  D
C130        C134   1.530       .  S
C130        C132   1.539       .  S
C130        H136   1.111       .  S
C131        H137   1.086       .  S
C131        C132   1.366       .  D
C133        H138   1.086       .  S
C133        C134   1.361       .  D
C134        C260   1.477       .  S
C139        C140   1.538       .  S
C139        C145   1.540       .  S
C139        C567   1.552       .  S
C139        C653   1.562       .  S
C140        H147   1.086       .  S
C140        C141   1.369       .  D
C141        C142   1.533       .  S
C142        C146   1.526       .  S
C142        C144   1.536       .  S
C142        H148   1.111       .  S
C143        C563   1.552   1_455  S
C143        H149   1.083       .  S
C143        C568   1.374   1_455  D
C144        C174   1.476       .  S
C144        C567   1.374       .  D
C145        H150   1.086       .  S
C145        C146   1.360       .  D
C146        C257   1.477       .  S
In151       O153   2.201       .  S
In151       O154   2.251       .  S
In151       O162   2.214       .  S
In151       O156   2.226       .  S
In151       O158   2.245       .  S
In151       O159   2.259       .  S
In151       O160   2.213       .  S
In151       O163   2.181       .  S
C152        O158   1.268       .  A
C152        O160   1.263       .  A
O153        C161   1.261       .  A
O154        C161   1.271       .  A
C155        O586   1.266       .  A
C155        O580   1.272       .  A
C155        C316   1.485       .  S
O156        C579   1.272       .  A
C157        O159   1.274       .  A
C157        O163   1.264       .  A
C157        C218   1.485       .  S
C161        C194   1.468       .  S
O162        C579   1.266       .  A
In164       O166   2.234       .  S
In164       O175   2.224       .  S
In164       O169   2.265       .  S
In164       O172   2.261       .  S
In164       O176   2.205       .  S
In164       O591   2.267   1_455  S
In164       O595   2.281   1_455  S
In164       O597   2.241   1_455  S
C165        O171   1.269       .  A
C165        O173   1.260       .  A
O166        C598   1.258   1_455  A
O167       In588   2.267       .  S
O167        C174   1.266       .  A
C168        O175   1.262       .  A
C168        O169   1.271       .  A
C168        C299   1.486       .  S
C170        O172   1.270       .  A
C170        O176   1.265       .  A
C170        C215   1.484       .  S
O171       In588   2.281       .  S
O173       In588   2.241       .  S
C174        O590   1.258       .  A
C177        C178   1.541       .  S
C177        C183   1.539       .  S
C177        C181   1.554       .  S
C177        C243   1.564       .  S
C178        H185   1.087       .  S
C178        C179   1.367       .  D
C179        C180   1.534       .  S
C180        C184   1.530       .  S
C180        C182   1.537       .  S
C180        H186   1.111       .  S
C181        H187   1.082       .  S
C181        C182   1.374       .  D
C183        H188   1.087       .  S
C183        C184   1.360       .  D
C184        C201   1.480       .  S
C189        C190   1.550       .  S
C189        C195   1.540       .  S
C189        C193   1.537       .  S
C189        C232   1.562       .  S
C190        H197   1.081       .  S
C190        C191   1.373       .  D
C191        C192   1.536       .  S
C192        C196   1.529       .  S
C192        C194   1.531       .  S
C192        H198   1.111       .  S
C193        H199   1.087       .  S
C193        C194   1.365       .  D
C195        H200   1.087       .  S
C195        C196   1.362       .  D
C196        C204   1.480       .  S
C201        C202   1.411       .  A
C201        C206   1.411       .  A
C202        C203   1.408   1_545  A
C202        C207   1.451       .  S
C203        C204   1.410       .  A
C203        C210   1.451       .  S
C204        C205   1.408       .  A
C205        C206   1.409   1_565  A
C205        C208   1.450       .  S
C206        C209   1.450       .  S
C207        N214   1.157       .  T
C208        N213   1.157       .  T
C209        N211   1.157       .  T
C210        N212   1.157       .  T
C215        C216   1.408       .  A
C215        C220   1.413       .  A
C216        C217   1.403       .  A
C216        C645   1.447   1_455  S
C217        C218   1.414       .  A
C217        C648   1.454   1_455  S
C218        C219   1.414       .  A
C219        C220   1.418       .  A
C219        C222   1.449       .  S
C220        C223   1.449       .  S
C221        C640   1.447       .  S
C221        N228   1.155       .  T
C222        N227   1.157       .  T
C223        N225   1.157       .  T
C224        C641   1.454       .  S
C224        N226   1.157       .  T
C229        C563   1.562   1_455  S
C229        C230   1.421       .  A
C229        C234   1.423       .  A
C230        C231   1.425       .  A
C230        C235   1.449       .  S
C231        C232   1.423   1_556  A
C231        C238   1.449   1_556  S
C232        C233   1.424       .  A
C233        C234   1.414   1_554  A
C233        C236   1.455       .  S
C234        C661   1.453   1_455  S
C235        N242   1.157       .  T
C236        N241   1.158       .  T
C237        C658   1.453       .  S
C237        N239   1.157       .  T
C238        N240   1.158       .  T
C243        C244   1.426       .  A
C243        C248   1.423   1_554  A
C244        C669   1.415   1_454  A
C244        C249   1.455       .  S
C245        C668   1.415   1_556  A
C245        C670   1.423       .  A
C245        C252   1.454       .  S
C246        C551   1.560   1_455  S
C246        C247   1.421       .  A
C246        C669   1.423   1_455  A
C247        C248   1.425       .  A
C247        C250   1.451       .  S
C248        C251   1.447   1_556  S
C249        N680   1.157       .  T
C250        N255   1.158       .  T
C251        N253   1.157       .  T
C252        N254   1.158       .  T
N256        C673   1.157       .  T
C257        C258   1.409       .  A
C257        C262   1.410       .  A
C258        C259   1.408       .  A
C258        C687   1.451       .  S
C259        C260   1.410   1_565  A
C259        C690   1.450   1_565  S
C260        C261   1.409   1_545  A
C261        C262   1.408       .  A
C261        C264   1.451   1_565  S
C262        C265   1.451       .  S
C263        C682   1.451   1_455  S
C263        N270   1.157       .  T
C264        N269   1.157       .  T
C265        N267   1.157       .  T
C266        C683   1.450   1_545  S
C266        N268   1.157   1_655  T
C271        C272   1.410       .  A
C271        C276   1.412       .  A
C272        C273   1.412       .  A
C272        C277   1.451       .  S
C273        C274   1.413       .  A
C273        C280   1.450       .  S
C274        C275   1.410   1_455  A
C275        C276   1.412   1_655  A
C275        C702   1.449       .  S
C276        C703   1.451   1_455  S
C277        N284   1.157       .  T
C278        C699   1.449       .  S
C278        N283   1.157       .  T
C279        C700   1.451       .  S
C279        N281   1.157       .  T
C280        N282   1.157       .  T
C285        C286   1.410       .  A
C285        C290   1.408       .  A
C286        C287   1.408       .  A
C286        C291   1.450       .  S
C287        C288   1.410       .  A
C287        C294   1.451       .  S
C288        C289   1.410       .  A
C289        C290   1.409       .  A
C289        C292   1.450       .  S
C290        C293   1.450       .  S
C291        N298   1.157       .  T
C292        N297   1.157       .  T
C293        N295   1.157       .  T
C294        N296   1.157       .  T
C299        C300   1.413       .  A
C299        C304   1.411       .  A
C300        C301   1.414       .  A
C300        C305   1.450       .  S
C301        C302   1.411       .  A
C301        C308   1.450       .  S
C302        C303   1.412       .  A
C303        C304   1.412       .  A
C303        C306   1.450       .  S
C304        C307   1.449       .  S
C305        N312   1.157       .  T
C306        N311   1.157       .  T
C307        N309   1.156       .  T
C308        N310   1.157       .  T
C313        C314   1.412       .  A
C313        C318   1.417       .  A
C314        C315   1.412       .  A
C314        C319   1.451       .  S
C315        C316   1.417       .  A
C315        C322   1.452       .  S
C316        C317   1.411       .  A
C317        C318   1.409       .  A
C317        C320   1.452       .  S
C318        C321   1.453       .  S
C319        N326   1.157       .  T
C320        N325   1.157       .  T
C321        N323   1.157       .  T
C322        N324   1.158       .  T
C327        C328   1.417       .  A
C327        C332   1.416       .  A
C328        C329   1.406   1_554  A
C328        C333   1.454       .  S
C329        C330   1.411       .  A
C329        C336   1.452       .  S
C330        C331   1.412       .  A
C331        C332   1.416   1_556  A
C331        C334   1.450       .  S
C332        C335   1.449       .  S
C333        N340   1.158       .  T
C334        N339   1.157       .  T
C335        N337   1.157       .  T
C336        N338   1.157       .  T
C341        C342   1.423       .  A
C341        C346   1.429       .  A
C342        C343   1.418       .  A
C342        C347   1.453       .  S
C343        C344   1.426       .  A
C343        C350   1.454       .  S
C344        C345   1.427       .  A
C345        C346   1.423       .  A
C345        C348   1.453       .  S
C346        C349   1.453       .  S
C347        N354   1.157       .  T
C348        N353   1.158       .  T
C349        N351   1.158       .  T
C350        N352   1.158       .  T
C355        C356   1.423       .  A
C355        C360   1.423       .  A
C356        C357   1.426       .  A
C356        C361   1.450       .  S
C357        C358   1.423       .  A
C357        C364   1.448       .  S
C358        C359   1.426       .  A
C359        C360   1.416       .  A
C359        C362   1.454       .  S
C360        C363   1.454       .  S
C361        N368   1.158       .  T
C362        N367   1.158       .  T
C363        N365   1.158       .  T
C364        N366   1.157       .  T
C369        C370   1.410       .  A
C369        C374   1.411       .  A
C370        C371   1.409       .  A
C370        C375   1.450       .  S
C371        C372   1.410       .  A
C371        C378   1.450       .  S
C372        C373   1.411       .  A
C373        C374   1.410       .  A
C373        C376   1.451       .  S
C374        C377   1.450       .  S
C375        N382   1.157       .  T
C376        N381   1.157       .  T
C377        N379   1.157       .  T
C378        N380   1.157       .  T
C383        C384   1.414       .  A
C383        C388   1.415       .  A
C384        C385   1.414       .  A
C384        C389   1.451       .  S
C385        C386   1.417       .  A
C385        C392   1.452       .  S
C386        C387   1.412       .  A
C387        C388   1.409       .  A
C387        C390   1.452       .  S
C388        C391   1.452       .  S
C389        N396   1.158       .  T
C390        N395   1.157       .  T
C391        N393   1.157       .  T
C392        N394   1.158       .  T
C397        C398   1.414       .  A
C397        C402   1.417       .  A
C398        C399   1.412       .  A
C398        C403   1.452       .  S
C399        C400   1.418       .  A
C399        C406   1.452       .  S
C400        C401   1.415       .  A
C401        C402   1.414       .  A
C401        C404   1.452       .  S
C402        C405   1.452       .  S
C403        N410   1.157       .  T
C404        N409   1.157       .  T
C405        N407   1.157       .  T
C406        N408   1.157       .  T
C411        C412   1.412       .  A
C411        C416   1.411   1_554  A
C412        C413   1.413   1_554  A
C412        C417   1.451       .  S
C413        C414   1.411       .  A
C413        C420   1.450       .  S
C414        C415   1.413       .  A
C415        C416   1.415       .  A
C415        C418   1.451       .  S
C416        C419   1.449       .  S
C417        N424   1.157       .  T
C418        N423   1.157       .  T
C419        N421   1.157       .  T
C420        N422   1.157       .  T
In425       O427   2.216       .  S
In425       O428   2.260       .  S
In425       O436   2.225       .  S
In425       O430   2.238       .  S
In425       O432   2.261       .  S
In425       O433   2.266       .  S
In425       O434   2.233       .  S
In425       O437   2.208       .  S
C426        O432   1.267       .  A
C426        O434   1.261       .  A
C426        C606   1.476       .  S
O427        C435   1.260       .  A
O428        C435   1.270       .  A
C429        O436   1.266       .  A
C429        O430   1.272       .  A
C429        C821   1.494       .  S
C431        O433   1.272       .  A
C431        O437   1.263       .  A
C431        C835   1.484       .  S
C435        C506   1.473       .  S
In438       O440   2.230       .  S
In438       O441   2.275       .  S
In438       O449   2.209       .  S
In438       O443   2.250       .  S
In438       O445   2.272       .  S
In438       O446   2.264       .  S
In438       O447   2.217       .  S
In438       O450   2.224       .  S
C439        O445   1.266       .  A
C439        O447   1.259       .  A
C439        C556   1.474       .  S
O440        C448   1.259       .  A
O441        C448   1.268       .  A
C442        O449   1.264       .  A
C442        O443   1.271       .  A
C442        C807   1.488       .  S
C444        O446   1.270       .  A
C444        O450   1.263       .  A
C444        C838   1.484       .  S
C448        C456   1.479       .  S
C451        C452   1.553       .  S
C451        C457   1.541       .  S
C451        C455   1.540       .  S
C451        C782   1.567       .  S
C452        H459   1.081       .  S
C452        C453   1.374       .  D
C453        C539   1.478       .  S
C453        C454   1.538       .  S
C454        C458   1.530       .  S
C454        C456   1.537       .  S
C454        H460   1.111       .  S
C455        H461   1.086       .  S
C455        C456   1.367       .  D
C457        H462   1.087       .  S
C457        C458   1.362       .  D
C458        C796   1.482       .  S
C463        C464   1.540       .  S
C463        C469   1.528       .  S
C463        C467   1.549       .  S
C463        C765   1.565       .  S
C464        H471   1.082       .  S
C464        C465   1.366       .  D
C465        C494   1.470       .  S
C465        C466   1.538       .  S
C466        C470   1.534       .  S
C466        C468   1.543       .  S
C466        H472   1.111       .  S
C467        H473   1.079       .  S
C467        C468   1.378       .  D
C468        C589   1.485       .  S
C469        H474   1.087       .  S
C469        C470   1.358       .  D
C470        C793   1.481       .  S
In475       O477   2.195       .  S
In475       O478   2.257       .  S
In475       O486   2.203       .  S
In475       O480   2.242       .  S
In475       O482   2.258       .  S
In475       O483   2.262       .  S
In475       O484   2.217       .  S
In475       O487   2.217       .  S
C476        O482   1.268       .  A
C476        O484   1.262       .  A
C476        C615   1.473       .  S
O477        C485   1.264       .  A
O478        C485   1.272       .  A
C479        O486   1.265       .  A
C479        O480   1.272       .  A
C479        C737   1.486       .  S
C481        O483   1.269       .  A
C481        O487   1.261       .  A
C481        C515   1.473       .  S
C485        C751   1.490       .  S
In488       O490   2.195       .  S
In488       O491   2.244       .  S
In488       O499   2.221       .  S
In488       O493   2.251       .  S
In488       O495   2.252       .  S
In488       O496   2.261       .  S
In488       O497   2.218       .  S
In488       O500   2.196       .  S
C489        O495   1.270       .  A
C489        O497   1.263       .  A
C489        C565   1.471       .  S
O490        C498   1.266       .  A
O491        C498   1.272       .  A
C492        O499   1.265       .  A
C492        O493   1.271       .  A
C492        C726   1.485       .  S
C494        O496   1.270       .  A
C494        O500   1.261       .  A
C498        C754   1.483       .  S
C501        C502   1.537       .  S
C501        C507   1.539       .  S
C501        C505   1.551       .  S
C501        C779   1.564       .  S
C502        H509   1.086       .  S
C502        C503   1.369       .  D
C503        C526   1.478       .  S
C503        C504   1.539       .  S
C504        C508   1.531       .  S
C504        C506   1.534       .  S
C504        H510   1.111       .  S
C505        H511   1.083       .  S
C505        C506   1.373       .  D
C507        H512   1.087       .  S
C507        C508   1.362       .  D
C508        C709   1.479       .  S
C513        C514   1.548       .  S
C513        C519   1.533       .  S
C513        C517   1.547       .  S
C513        C768   1.564       .  S
C514        H521   1.086       .  S
C514        C515   1.370       .  D
C515        C516   1.535       .  S
C516        C520   1.527       .  S
C516        C518   1.536       .  S
C516        H522   1.111       .  S
C517        H523   1.083       .  S
C517        C518   1.370       .  D
C518        C576   1.469       .  S
C519        H524   1.087       .  S
C519        C520   1.359       .  D
C520        C712   1.479       .  S
In525       O527   2.215       .  S
In525       O528   2.255       .  S
In525       O530   2.250       .  S
In525       O532   2.280       .  S
In525       O533   2.266       .  S
In525       O534   2.223       .  S
In525       O537   2.226       .  S
C526        O532   1.267       .  A
C526        O534   1.259       .  A
O527        C535   1.263       .  A
O528        C535   1.270       .  A
C529        O536   1.264   1_655  A
C529        C824   1.495       .  S
C531        O533   1.267       .  A
C531        O537   1.260       .  A
C531        C603   1.475       .  S
C535        C695   1.480       .  S
In538       O540   2.210       .  S
In538       O541   2.258       .  S
In538       O549   2.218       .  S
In538       O543   2.234       .  S
C539        O545   1.268       .  A
C539        O547   1.261       .  A
O540        C548   1.264       .  A
O541        C548   1.272       .  A
C542        O549   1.266       .  A
C542        O543   1.273       .  A
C542        C810   1.488       .  S
C544        O546   1.271       .  A
C544        O550   1.260       .  A
C544        C553   1.473       .  S
C548        C698   1.482       .  S
C551        C557   1.538       .  S
C551        C555   1.534       .  S
C552        H559   1.084       .  S
C553        C554   1.535       .  S
C554        C558   1.530       .  S
C554        C556   1.539       .  S
C554        H560   1.111       .  S
C555        H561   1.086       .  S
C555        C556   1.366       .  D
C557        H562   1.086       .  S
C557        C558   1.361       .  D
C558        C684   1.477       .  S
C563        C564   1.538       .  S
C563        C569   1.540       .  S
C564        H571   1.086       .  S
C564        C565   1.369       .  D
C565        C566   1.533       .  S
C566        C570   1.526       .  S
C566        C568   1.536       .  S
C566        H572   1.111       .  S
C567        H573   1.083       .  S
C568        C598   1.476       .  S
C569        H574   1.086       .  S
C569        C570   1.360       .  D
C570        C681   1.477       .  S
In575       O577   2.201       .  S
In575       O578   2.251       .  S
In575       O586   2.214       .  S
In575       O580   2.226       .  S
In575       O582   2.245       .  S
In575       O583   2.259       .  S
In575       O584   2.213       .  S
In575       O587   2.181       .  S
C576        O582   1.268       .  A
C576        O584   1.263       .  A
O577        C585   1.261       .  A
O578        C585   1.271       .  A
C579        C740   1.485   1_455  S
C581        O583   1.274       .  A
C581        O587   1.264       .  A
C581        C642   1.485       .  S
C585        C618   1.468       .  S
In588       O590   2.234       .  S
In588       O599   2.224       .  S
In588       O593   2.265       .  S
In588       O596   2.261       .  S
In588       O600   2.205       .  S
C589        O595   1.269       .  A
C589        O597   1.260       .  A
O591        C598   1.266       .  A
C592        O599   1.262       .  A
C592        O593   1.271       .  A
C592        C723   1.486       .  S
C594        O596   1.270       .  A
C594        O600   1.265       .  A
C594        C639   1.484       .  S
C601        C602   1.541       .  S
C601        C607   1.539       .  S
C601        C605   1.554       .  S
C601        C667   1.564       .  S
C602        H609   1.087       .  S
C602        C603   1.367       .  D
C603        C604   1.534       .  S
C604        C608   1.530       .  S
C604        C606   1.537       .  S
C604        H610   1.111       .  S
C605        H611   1.082       .  S
C605        C606   1.374       .  D
C607        H612   1.087       .  S
C607        C608   1.360       .  D
C608        C625   1.480       .  S
C613        C614   1.550       .  S
C613        C619   1.540       .  S
C613        C617   1.537       .  S
C613        C656   1.562       .  S
C614        H621   1.081       .  S
C614        C615   1.373       .  D
C615        C616   1.536       .  S
C616        C620   1.529       .  S
C616        C618   1.531       .  S
C616        H622   1.111       .  S
C617        H623   1.087       .  S
C617        C618   1.365       .  D
C619        H624   1.087       .  S
C619        C620   1.362       .  D
C620        C628   1.480       .  S
C625        C626   1.411       .  A
C625        C630   1.411       .  A
C626        C627   1.408   1_545  A
C626        C631   1.451       .  S
C627        C628   1.410       .  A
C627        C634   1.451       .  S
C628        C629   1.408       .  A
C629        C630   1.409   1_565  A
C629        C632   1.450       .  S
C630        C633   1.450       .  S
C631        N638   1.157       .  T
C632        N637   1.157       .  T
C633        N635   1.157       .  T
C634        N636   1.157       .  T
C639        C640   1.408       .  A
C639        C644   1.413       .  A
C640        C641   1.403       .  A
C641        C642   1.414       .  A
C642        C643   1.414       .  A
C643        C644   1.418       .  A
C643        C646   1.449       .  S
C644        C647   1.449       .  S
C645        N652   1.155       .  T
C646        N651   1.157       .  T
C647        N649   1.157       .  T
C648        N650   1.157       .  T
C653        C654   1.421       .  A
C653        C658   1.423       .  A
C654        C655   1.425       .  A
C654        C659   1.449       .  S
C655        C656   1.423   1_556  A
C655        C662   1.449   1_556  S
C656        C657   1.424       .  A
C657        C658   1.414   1_554  A
C657        C660   1.455       .  S
C659        N666   1.157       .  T
C660        N665   1.158       .  T
C661        N663   1.157       .  T
C662        N664   1.158       .  T
C667        C668   1.426       .  A
C667        C672   1.423   1_554  A
C668        C673   1.455       .  S
C669        C676   1.454       .  S
C670        C671   1.421       .  A
C671        C672   1.425       .  A
C671        C674   1.451       .  S
C672        C675   1.447   1_556  S
C674        N679   1.158       .  T
C675        N677   1.157       .  T
C676        N678   1.158       .  T
C681        C682   1.409       .  A
C681        C686   1.410       .  A
C682        C683   1.408       .  A
C683        C684   1.410   1_565  A
C684        C685   1.409   1_545  A
C685        C686   1.408       .  A
C685        C688   1.451   1_565  S
C686        C689   1.451       .  S
C687        N694   1.157       .  T
C688        N693   1.157       .  T
C689        N691   1.157       .  T
C690        N692   1.157       .  T
C695        C696   1.410       .  A
C695        C700   1.412       .  A
C696        C697   1.412       .  A
C696        C701   1.451       .  S
C697        C698   1.413       .  A
C697        C704   1.450       .  S
C698        C699   1.410       .  A
C699        C700   1.412       .  A
C701        N708   1.157       .  T
C702        N707   1.157       .  T
C703        N705   1.157       .  T
C704        N706   1.157       .  T
C709        C710   1.410       .  A
C709        C714   1.408       .  A
C710        C711   1.408       .  A
C710        C715   1.450       .  S
C711        C712   1.410       .  A
C711        C718   1.451       .  S
C712        C713   1.410       .  A
C713        C714   1.409       .  A
C713        C716   1.450       .  S
C714        C717   1.450       .  S
C715        N722   1.157       .  T
C716        N721   1.157       .  T
C717        N719   1.157       .  T
C718        N720   1.157       .  T
C723        C724   1.413       .  A
C723        C728   1.411       .  A
C724        C725   1.414       .  A
C724        C729   1.450       .  S
C725        C726   1.411       .  A
C725        C732   1.450       .  S
C726        C727   1.412       .  A
C727        C728   1.412       .  A
C727        C730   1.450       .  S
C728        C731   1.449       .  S
C729        N736   1.157       .  T
C730        N735   1.157       .  T
C731        N733   1.156       .  T
C732        N734   1.157       .  T
C737        C738   1.412       .  A
C737        C742   1.417       .  A
C738        C739   1.412       .  A
C738        C743   1.451       .  S
C739        C740   1.417       .  A
C739        C746   1.452       .  S
C740        C741   1.411       .  A
C741        C742   1.409       .  A
C741        C744   1.452       .  S
C742        C745   1.453       .  S
C743        N750   1.157       .  T
C744        N749   1.157       .  T
C745        N747   1.157       .  T
C746        N748   1.158       .  T
C751        C752   1.417       .  A
C751        C756   1.416       .  A
C752        C753   1.406   1_554  A
C752        C757   1.454       .  S
C753        C754   1.411       .  A
C753        C760   1.452       .  S
C754        C755   1.412       .  A
C755        C756   1.416   1_556  A
C755        C758   1.450       .  S
C756        C759   1.449       .  S
C757        N764   1.158       .  T
C758        N763   1.157       .  T
C759        N761   1.157       .  T
C760        N762   1.157       .  T
C765        C766   1.423       .  A
C765        C770   1.429       .  A
C766        C767   1.418       .  A
C766        C771   1.453       .  S
C767        C768   1.426       .  A
C767        C774   1.454       .  S
C768        C769   1.427       .  A
C769        C770   1.423       .  A
C769        C772   1.453       .  S
C770        C773   1.453       .  S
C771        N778   1.157       .  T
C772        N777   1.158       .  T
C773        N775   1.158       .  T
C774        N776   1.158       .  T
C779        C780   1.423       .  A
C779        C784   1.423       .  A
C780        C781   1.426       .  A
C780        C785   1.450       .  S
C781        C782   1.423       .  A
C781        C788   1.448       .  S
C782        C783   1.426       .  A
C783        C784   1.416       .  A
C783        C786   1.454       .  S
C784        C787   1.454       .  S
C785        N792   1.158       .  T
C786        N791   1.158       .  T
C787        N789   1.158       .  T
C788        N790   1.157       .  T
C793        C794   1.410       .  A
C793        C798   1.411       .  A
C794        C795   1.409       .  A
C794        C799   1.450       .  S
C795        C796   1.410       .  A
C795        C802   1.450       .  S
C796        C797   1.411       .  A
C797        C798   1.410       .  A
C797        C800   1.451       .  S
C798        C801   1.450       .  S
C799        N806   1.157       .  T
C800        N805   1.157       .  T
C801        N803   1.157       .  T
C802        N804   1.157       .  T
C807        C808   1.414       .  A
C807        C812   1.415       .  A
C808        C809   1.414       .  A
C808        C813   1.451       .  S
C809        C810   1.417       .  A
C809        C816   1.452       .  S
C810        C811   1.412       .  A
C811        C812   1.409       .  A
C811        C814   1.452       .  S
C812        C815   1.452       .  S
C813        N820   1.158       .  T
C814        N819   1.157       .  T
C815        N817   1.157       .  T
C816        N818   1.158       .  T
C821        C822   1.414       .  A
C821        C826   1.417       .  A
C822        C823   1.412       .  A
C822        C827   1.452       .  S
C823        C824   1.418       .  A
C823        C830   1.452       .  S
C824        C825   1.415       .  A
C825        C826   1.414       .  A
C825        C828   1.452       .  S
C826        C829   1.452       .  S
C827        N834   1.157       .  T
C828        N833   1.157       .  T
C829        N831   1.157       .  T
C830        N832   1.157       .  T
C835        C836   1.412       .  A
C835        C840   1.411   1_554  A
C836        C837   1.413   1_554  A
C836        C841   1.451       .  S
C837        C838   1.411       .  A
C837        C844   1.450       .  S
C838        C839   1.413       .  A
C839        C840   1.415       .  A
C839        C842   1.451       .  S
C840        C843   1.449       .  S
C841        N848   1.157       .  T
C842        N847   1.157       .  T
C843        N845   1.157       .  T
C844        N846   1.157       .  T
