geometry optimzed in LAMMPS
_audit_creation_date              2020-12-01 
_audit_creation_method            'lammps2cif' 
_symmetry_space_group_name_H-M    'P1' 
_symmetry_Int_Tables_number       1 
_symmetry_cell_setting            triclinic 
loop_ 
_symmetry_equiv_pos_as_xyz 
  x,y,z 
_cell_length_a                    56.5836741 
_cell_length_b                    56.55735945349839 
_cell_length_c                    30.6839272015328 
_cell_angle_alpha                 90.13415524208845 
_cell_angle_beta                  89.95724367538025 
_cell_angle_gamma                 120.06508357729969 
loop_ 
_atom_site_label 
_atom_site_type_symbol 
_atom_site_fract_x 
_atom_site_fract_y 
_atom_site_fract_z 
_atom_site_charge 
O1          O  0.02262285  0.26412612  0.93234417    -0.73200
O2          O  0.02469041  0.26150461  0.06290302    -0.74200
O3          O  0.02402253  0.22751728  0.99386850    -0.62800
O4          O  0.02341989  0.29829071  0.00095016    -0.71200
O5          O  0.47755772  0.27547307  0.00921194    -0.70700
O6          O  0.47795983  0.20495453  0.00096080    -0.62000
O7          O  0.47843424  0.23834517  0.07063105    -0.74500
O8          O  0.47717245  0.24207498  0.94024449    -0.73300
Cu9        Cu  0.02526365  0.26367970  0.99751659     1.04600
Cu10       Cu  0.47621944  0.23941453  0.00540080     1.04300
C11         C  0.99968975  0.25320142  0.91249909     0.93000
C12         C  0.00229843  0.24910882  0.08416386     0.92200
C13         C  0.00144929  0.20486727  0.99257910     0.84300
C14         C  0.00076440  0.29811040  0.00293691     0.90600
O15         O  0.47673283  0.27045969  0.50528228    -0.73200
O16         O  0.47976833  0.20119621  0.50607446    -0.74200
O17         O  0.47795941  0.23619866  0.57067902    -0.62800
O18         O  0.47849905  0.23568981  0.43988527    -0.71200
O19         O  0.02467350  0.25963240  0.43325034    -0.70700
O20         O  0.02370313  0.25990773  0.56426120    -0.62000
O21         O  0.02461922  0.22468763  0.49917661    -0.74500
O22         O  0.02422524  0.29531796  0.49865470    -0.73300
Cu23       Cu  0.47666716  0.23502396  0.50536342     1.04600
Cu24       Cu  0.02587706  0.26071148  0.49876337     1.04300
C25         C  0.49891874  0.29341992  0.50663354     0.93000
C26         C  0.50273485  0.20193933  0.50640848     0.92200
C27         C  0.50052944  0.24820065  0.59154696     0.84300
C28         C  0.50125405  0.24754397  0.41950899     0.90600
C29         C  0.47528038  0.47619688  0.98966143     0.02000
C30         C  0.50035436  0.47627768  0.99041228     0.02000
C31         C  0.02549404  0.00137580  0.99606697     0.02000
C32         C  0.02496018  0.02612318  0.99495642     0.02000
C33         C  0.50008413  0.02677991  0.98722275     0.02000
C34         C  0.47518133  0.50116021  0.98880564     0.02000
C35         C  0.02337084  0.02145638  0.50883558     0.02000
C36         C  0.02427960  0.49727223  0.49844707     0.02000
C37         C  0.49861437  0.47108776  0.50630578     0.02000
C38         C  0.47373702  0.47137849  0.50497545     0.02000
C39         C  0.47405973  0.49654193  0.50452774     0.02000
C40         C  0.49881473  0.02147248  0.50342584     0.02000
O41         O  0.29711889  0.02277773  0.01420907    -0.73200
O42         O  0.22669330  0.02401161  0.00726878    -0.74200
O43         O  0.26138580  0.02580469  0.07578432    -0.62800
O44         O  0.26265980  0.02115098  0.94554516    -0.71200
O45         O  0.24009162  0.47887885  0.93559478    -0.70700
O46         O  0.23920991  0.48074022  0.06586388    -0.62000
O47         O  0.20425385  0.47991224  0.99929746    -0.74500
O48         O  0.27524024  0.48003826  0.00243622    -0.73300
Cu49       Cu  0.26274752  0.02499709  0.01056031     1.04600
Cu50       Cu  0.23892173  0.47834769  0.00080560     1.04300
C51         C  0.29672069  0.99999477  0.01648957     0.93000
C52         C  0.20389271  0.00156502  0.00814974     0.92200
C53         C  0.24976315  0.00392210  0.09830730     0.84300
C54         C  0.25105666  0.99790024  0.92654195     0.90600
O55         O  0.29912591  0.02649055  0.51385758    -0.73200
O56         O  0.22741105  0.02538320  0.51423729    -0.74200
O57         O  0.26256709  0.02385324  0.57963273    -0.62800
O58         O  0.26422059  0.02823636  0.44880934    -0.71200
O59         O  0.23958610  0.47957640  0.43387895    -0.70700
O60         O  0.24071481  0.47720251  0.56420851    -0.62000
O61         O  0.20450846  0.47817743  0.50078352    -0.74500
O62         O  0.27586714  0.47894744  0.49666116    -0.73300
Cu63       Cu  0.26410411  0.02758182  0.51434895     1.04600
Cu64       Cu  0.23940068  0.47690286  0.49888158     1.04300
C65         C  0.29841816  0.50165172  0.49776816     0.93000
C66         C  0.20449435  0.50078065  0.50066208     0.92200
C67         C  0.25171374  0.49946348  0.58599083     0.84300
C68         C  0.25110300  0.50251699  0.41416975     0.90600
O69         O  0.25979666  0.23867404  0.93643703    -0.73200
O70         O  0.26001343  0.24072343  0.06652489    -0.74200
O71         O  0.22388572  0.20493638  0.00268750    -0.62800
O72         O  0.29588983  0.27486772  0.00082740    -0.71200
O73         O  0.27432812  0.29844028  0.99900960    -0.70700
O74         O  0.20226414  0.22855912  0.00057412    -0.62000
O75         O  0.23841187  0.26435665  0.06546992    -0.74500
O76         O  0.23836475  0.26245967  0.93432739    -0.73300
Cu77       Cu  0.26065202  0.23901298  0.00162884     1.04600
Cu78       Cu  0.23758896  0.26430494  0.99979031     1.04300
C79         C  0.24886164  0.24993623  0.91473314     0.93000
C80         C  0.24932089  0.25282409  0.08666732     0.92200
C81         C  0.20170639  0.20572103  0.00242160     0.84300
C82         C  0.29657839  0.29777866  0.99932083     0.90600
O83         O  0.26003184  0.23481005  0.56546528    -0.73200
O84         O  0.25877223  0.23540230  0.43457538    -0.74200
O85         O  0.29515061  0.27041801  0.49955125    -0.62800
O86         O  0.22358586  0.19988982  0.50022219    -0.71200
O87         O  0.20168721  0.22303721  0.50238777    -0.70700
O88         O  0.27293161  0.29346023  0.50164542    -0.62000
O89         O  0.23657364  0.25842786  0.43653410    -0.74500
O90         O  0.23783159  0.25785814  0.56694563    -0.73300
Cu91       Cu  0.26019105  0.23433649  0.49989837     1.04600
Cu92       Cu  0.23652883  0.25901198  0.50190684     1.04300
C93         C  0.24873713  0.24591961  0.58685715     0.93000
C94         C  0.24721712  0.24679698  0.41486784     0.92200
C95         C  0.29530348  0.29308588  0.50022629     0.84300
C96         C  0.20115826  0.20022857  0.50147829     0.90600
C97         C  0.24729398  0.22639715  0.79807842    -0.11600
C98         C  0.25186536  0.24958675  0.77479311     0.14900
C99         C  0.25476957  0.27260176  0.79757862     0.01800
C100        C  0.25299209  0.27190160  0.84309790    -0.16000
C101        C  0.24872133  0.24880260  0.86659430    -0.10800
C102        C  0.24535983  0.22560426  0.84353677     0.08500
C103        C  0.25133982  0.24828413  0.72669416     0.09600
S104        S  0.26090725  0.30345194  0.77049990    -0.25100
H105        H  0.25562824  0.28980551  0.86036153     0.19800
S106        S  0.23686883  0.19381127  0.86975649    -0.30800
H107        H  0.24438724  0.20847133  0.78054160     0.10100
C108        C  0.27325531  0.24976592  0.70264674     0.03400
C109        C  0.27169151  0.24833925  0.65698647    -0.13100
C110        C  0.24852610  0.24524778  0.63500021    -0.08800
C111        C  0.22614027  0.24260524  0.65953280     0.06800
C112        C  0.22800661  0.24464375  0.70492981    -0.13900
S113        S  0.30352286  0.25439693  0.73007994    -0.30800
H114        H  0.28880668  0.25028824  0.63829257     0.11100
S115        S  0.19411429  0.23515853  0.63522192    -0.27900
H116        H  0.21089099  0.24278745  0.72359382     0.08300
H117        H  0.21931852  0.19527122  0.90081108     0.26700
H118        H  0.31740107  0.25361552  0.69253725     0.21500
H119        H  0.19438413  0.21753626  0.60300343     0.26800
H120        H  0.27502998  0.30104289  0.73462698     0.15700
C121        C  0.25104530  0.27289074  0.20569196    -0.11600
C122        C  0.24768823  0.24939531  0.22665040     0.14900
C123        C  0.24445665  0.22706320  0.20143918     0.01800
C124        C  0.24567042  0.22911062  0.15604520    -0.16000
C125        C  0.24915953  0.25264548  0.13484221    -0.10800
C126        C  0.25206787  0.27488355  0.16018208     0.08500
C127        C  0.24804151  0.24897058  0.27479737     0.09600
S128        S  0.23840708  0.19530629  0.22506196    -0.25100
H129        H  0.24322809  0.21183395  0.13705290     0.19800
S130        S  0.25865429  0.30682834  0.13678290    -0.30800
H131        H  0.25361239  0.29009961  0.22503932     0.10100
C132        C  0.27013531  0.25027820  0.29807132     0.03400
C133        C  0.26913578  0.24908416  0.34373799    -0.13100
C134        C  0.24657078  0.24680878  0.36665140    -0.08800
C135        C  0.22437421  0.24525639  0.34295743     0.06800
C136        C  0.22556913  0.24680123  0.29748557    -0.13900
S137        S  0.29990109  0.25424264  0.26969666    -0.30800
H138        H  0.28622227  0.25043997  0.36173628     0.11100
S139        S  0.19326998  0.23959857  0.36842178    -0.27900
H140        H  0.20846597  0.24547378  0.27948962     0.08300
H141        H  0.27652733  0.30731343  0.10441069     0.26700
H142        H  0.31468480  0.25476833  0.30688053     0.21500
H143        H  0.19243763  0.22040718  0.39839313     0.26800
H144        H  0.22475409  0.19659576  0.26247862     0.15700
C145        C  0.25333270  0.47865402  0.70338660    -0.11600
C146        C  0.24947374  0.99657108  0.73847660     0.14900
C147        C  0.24765651  0.01743236  0.71631692     0.01800
C148        C  0.24911220  0.01855832  0.67078659    -0.16000
C149        C  0.25180430  0.49875471  0.63415765    -0.10800
C150        C  0.25495486  0.47905177  0.65783675     0.08500
C151        C  0.24988177  0.99558194  0.78660962     0.09600
S152        S  0.24355186  0.04324706  0.74426758    -0.25100
H153        H  0.24730745  0.03444869  0.65412546     0.19800
S154        S  0.26286933  0.45509242  0.63231453    -0.30800
H155        H  0.25605684  0.46374962  0.72143350     0.10100
C156        C  0.22779142  0.47840117  0.79877954     0.03400
C157        C  0.22917368  0.47972828  0.84442645    -0.13100
C158        C  0.25169180  0.99649006  0.87847137    -0.08800
C159        C  0.27512473  0.01443986  0.85409365     0.06800
C160        C  0.27384318  0.01400152  0.80858022    -0.13900
S161        S  0.19735936  0.45237517  0.77201895    -0.30800
H162        H  0.21184652  0.46514404  0.86343421     0.11100
S163        S  0.30752165  0.03770135  0.87893661    -0.27900
H164        H  0.29173851  0.02803488  0.79002995     0.08300
H165        H  0.28036052  0.47354675  0.60064860     0.26700
H166        H  0.18314725  0.43886565  0.81004720     0.21500
H167        H  0.30505851  0.01996634  0.91297469     0.26800
H168        H  0.22874899  0.02694187  0.77987368     0.15700
C169        C  0.22795423  0.48564412  0.29659526    -0.11600
C170        C  0.25343176  0.00782194  0.28665767     0.14900
C171        C  0.27719013  0.02537575  0.31062591     0.01800
C172        C  0.27610046  0.02524355  0.35625203    -0.16000
C173        C  0.25065651  0.50305517  0.36616091    -0.10800
C174        C  0.22681770  0.48574177  0.34208787     0.08500
C175        C  0.25302756  0.00699731  0.23849110     0.09600
S176        S  0.30955779  0.04783129  0.28505956    -0.25100
H177        H  0.29450701  0.03836733  0.37452706     0.19800
S178        S  0.19407986  0.46422296  0.36728536    -0.30800
H179        H  0.20956050  0.47256291  0.27825067     0.10100
C180        C  0.24940582  0.48048660  0.20189629     0.03400
C181        C  0.24868735  0.48128914  0.15630839    -0.13100
C182        C  0.24993551  0.00533049  0.14659348    -0.08800
C183        C  0.25139808  0.02772797  0.16983020     0.06800
C184        C  0.25340601  0.02850142  0.21534735    -0.13900
S185        S  0.24810000  0.45148204  0.22883114    -0.30800
H186        H  0.24763718  0.46452741  0.13763546     0.11100
S187        S  0.24918265  0.05513338  0.14392980    -0.27900
H188        H  0.25444142  0.04560744  0.23301870     0.08300
H189        H  0.19776462  0.48259267  0.40111288     0.26700
H190        H  0.24321637  0.43535112  0.19128228     0.21500
H191        H  0.22864679  0.03798195  0.11436664     0.26800
H192        H  0.30554262  0.03139016  0.24825383     0.15700
C193        C  0.12493840  0.14699448  0.50442061    -0.11600
C194        C  0.12589497  0.12283116  0.50733896     0.14900
C195        C  0.15134248  0.12396810  0.50776142     0.01800
C196        C  0.17531688  0.14940076  0.50580319    -0.16000
C197        C  0.17466781  0.17394410  0.50251926    -0.10800
C198        C  0.14879956  0.17239471  0.50147669     0.08500
C199        C  0.09982483  0.09682230  0.50840245     0.09600
S200        S  0.15478583  0.09393845  0.51157404    -0.25100
H201        H  0.19468484  0.14987148  0.50680265     0.19800
S202        S  0.14420320  0.20153477  0.49580802    -0.30800
H203        H  0.10528229  0.14597417  0.50368354     0.10100
C204        C  0.08760440  0.08393211  0.54791115     0.03400
C205        C  0.06239785  0.05962689  0.54700539    -0.13100
C206        C  0.04953001  0.04773810  0.50734128    -0.08800
C207        C  0.06195618  0.06076046  0.46769770     0.06800
C208        C  0.08686134  0.08524690  0.46882213    -0.13900
S209        S  0.10410586  0.09842668  0.59929180    -0.30800
H210        H  0.05277060  0.04959646  0.57721534     0.11100
S211        S  0.04784394  0.04762821  0.41444096    -0.27900
H212        H  0.09640245  0.09534761  0.43851024     0.08300
H213        H  0.15967157  0.21045301  0.45729923     0.26700
H214        H  0.08531105  0.07683957  0.62567988     0.21500
H215        H  0.02226001  0.02619287  0.42704198     0.26800
H216        H  0.12914411  0.07486176  0.49458959     0.15700
C217        C  0.40618187  0.41077187  0.46769776    -0.11600
C218        C  0.39782152  0.39484945  0.50562652     0.14900
C219        C  0.41498409  0.40367749  0.54260587     0.01800
C220        C  0.43909240  0.42895350  0.54174480    -0.16000
C221        C  0.44731587  0.44511791  0.50402664    -0.10800
C222        C  0.43102802  0.43536487  0.46602390     0.08500
C223        C  0.37142003  0.36889389  0.50490988     0.09600
S224        S  0.40779830  0.38339511  0.59130172    -0.25100
H225        H  0.45193840  0.43584119  0.57047776     0.19800
S226        S  0.44103916  0.45217402  0.41375306    -0.30800
H227        H  0.39344771  0.40364998  0.43882895     0.10100
C228        C  0.34892608  0.36521402  0.52997328     0.03400
C229        C  0.32421229  0.34037701  0.52733346    -0.13100
C230        C  0.32148948  0.31915398  0.50009697    -0.08800
C231        C  0.34389237  0.32323818  0.47417256     0.06800
C232        C  0.36860705  0.34789459  0.47719089    -0.13900
S233        S  0.35152516  0.39214795  0.56496687    -0.30800
H234        H  0.30702427  0.33728165  0.54707264     0.11100
S235        S  0.34191439  0.29845874  0.43506739    -0.27900
H236        H  0.38575287  0.35091752  0.45731491     0.08300
H237        H  0.46906014  0.46870828  0.42213883     0.26700
H238        H  0.32408930  0.37879143  0.57849319     0.21500
H239        H  0.31501552  0.29001282  0.42187933     0.26800
H240        H  0.39324083  0.35782882  0.57060629     0.15700
C241        C  0.14984897  0.02111714  0.49011312    -0.11600
C242        C  0.12726412  0.49867230  0.50132704     0.14900
C243        C  0.13011765  0.47789137  0.52178682     0.01800
C244        C  0.15549754  0.47918677  0.52113887    -0.16000
C245        C  0.17814726  0.50052700  0.49986867    -0.10800
C246        C  0.17530150  0.02258173  0.48947944     0.08500
C247        C  0.10110612  0.49865153  0.50090827     0.09600
S248        S  0.10233785  0.44928580  0.54939953    -0.25100
H249        H  0.15756426  0.46335353  0.53750971     0.19800
S250        S  0.20236517  0.05059531  0.45995097    -0.30800
H251        H  0.14765847  0.03719395  0.47490080     0.10100
C252        C  0.09112950  0.00525334  0.54737313     0.03400
C253        C  0.06588032  0.00422639  0.54625334    -0.13100
C254        C  0.05092723  0.49792749  0.49750092    -0.08800
C255        C  0.06108410  0.49145962  0.45984854     0.06800
C256        C  0.08597717  0.49183149  0.46216145    -0.13900
S257        S  0.11103085  0.01504481  0.59692839    -0.30800
H258        H  0.05831446  0.00909667  0.57531673     0.11100
S259        S  0.04410415  0.48291432  0.40756598    -0.27900
H260        H  0.09367844  0.48670885  0.43343820     0.08300
H261        H  0.21216165  0.03464769  0.44036665     0.26700
H262        H  0.09372625  0.02122895  0.62125773     0.21500
H263        H  0.02140213  0.48537052  0.41825634     0.26800
H264        H  0.08096875  0.44867702  0.52520354     0.15700
C265        C  0.37414503  0.02327292  0.52574487    -0.11600
C266        C  0.37334584  0.49897281  0.49601727     0.14900
C267        C  0.34786287  0.47496091  0.50090071     0.01800
C268        C  0.32403096  0.47659537  0.50169612    -0.16000
C269        C  0.32471396  0.50163040  0.49600080    -0.10800
C270        C  0.35068518  0.02567029  0.52612243     0.08500
C271        C  0.39929088  0.49867117  0.49782163     0.09600
S272        S  0.34429888  0.44155469  0.50554980    -0.25100
H273        H  0.30472206  0.45793475  0.50648795     0.19800
S274        S  0.35425170  0.05681552  0.54811603    -0.30800
H275        H  0.39323641  0.04001533  0.53787948     0.10100
C276        C  0.41607652  0.50467013  0.46081076     0.03400
C277        C  0.44033887  0.50391227  0.46401960    -0.13100
C278        C  0.44807535  0.49707356  0.50328887    -0.08800
C279        C  0.43271273  0.99144724  0.54528097     0.06800
C280        C  0.40865690  0.99285918  0.54563207    -0.13900
S281        S  0.40618498  0.51233248  0.40912883    -0.30800
H282        H  0.45328555  0.50834894  0.43569350     0.11100
S283        S  0.44433762  0.98337877  0.59482450    -0.27900
H284        H  0.39699190  0.98891078  0.57541585     0.08300
H285        H  0.34861794  0.06476263  0.50778771     0.26700
H286        H  0.42873994  0.51544282  0.38506549     0.21500
H287        H  0.42175736  0.97828788  0.62072875     0.26800
H288        H  0.36742285  0.44717122  0.48070414     0.15700
C289        C  0.14613593  0.13326344  0.02830107    -0.11600
C290        C  0.12498845  0.13046709  0.00112676     0.14900
C291        C  0.12854744  0.15310114  0.97644370     0.01800
C292        C  0.15370628  0.17745230  0.97768061    -0.16000
C293        C  0.17518046  0.18003087  0.00399041    -0.10800
C294        C  0.17091969  0.15786419  0.03062277     0.08500
C295        C  0.09962877  0.10362649  0.99932490     0.09600
S296        S  0.10197170  0.15231487  0.94278531    -0.25100
H297        H  0.15660420  0.19448897  0.95767784     0.19800
S298        S  0.19569754  0.16006670  0.06975728    -0.30800
H299        H  0.14321047  0.11613519  0.04811751     0.10100
C300        C  0.09225398  0.08715640  0.96169803     0.03400
C301        C  0.06778324  0.06215394  0.96136482    -0.13100
C302        C  0.05089331  0.05273133  0.99824205    -0.08800
C303        C  0.05891955  0.06885591  0.03663400     0.06800
C304        C  0.08305124  0.09418491  0.03647398    -0.13900
S305        S  0.11431400  0.09753639  0.91453722    -0.30800
H306        H  0.06164295  0.04985772  0.93206598     0.11100
S307        S  0.04013721  0.05874414  0.08730595    -0.27900
H308        H  0.08905219  0.10670351  0.06566494     0.08300
H309        H  0.20441105  0.18722220  0.08189230     0.26700
H310        H  0.09811274  0.07420891  0.88900537     0.21500
H311        H  0.01905181  0.03282826  0.07511941     0.26800
H312        H  0.07967101  0.13155036  0.96548146     0.15700
C313        C  0.37212387  0.35059744  0.98542073    -0.11600
C314        C  0.37268600  0.37443428  0.99965312     0.14900
C315        C  0.34810360  0.37312176  0.01260229     0.01800
C316        C  0.32384846  0.34786569  0.01279908    -0.16000
C317        C  0.32312546  0.32383981  0.99846384    -0.09000
C318        C  0.34770757  0.32556724  0.98374828     0.08500
C319        C  0.39902933  0.40044934  0.99817048     0.09600
S320        S  0.34609541  0.40289400  0.02812923    -0.25100
H321        H  0.30526412  0.34711090  0.02376300     0.19800
S322        S  0.34934764  0.29725483  0.95998295    -0.30800
H323        H  0.39085784  0.35168126  0.97437598     0.10100
C324        C  0.41254220  0.41486991  0.03625660     0.03400
C325        C  0.43719922  0.43968265  0.03255494    -0.13100
C326        C  0.44896720  0.44989881  0.99164752    -0.08800
C327        C  0.43582858  0.43501799  0.95371952     0.06800
C328        C  0.41092112  0.41055420  0.95736246    -0.13900
S329        S  0.39897876  0.40123824  0.08947154    -0.30800
H330        H  0.44761239  0.45107791  0.06151400     0.11100
S331        S  0.45054839  0.44698406  0.90060333    -0.27900
H332        H  0.40050356  0.39919865  0.92836433     0.08300
H333        H  0.32617240  0.28895845  0.93351912     0.26700
H334        H  0.41996957  0.42248422  0.11379369     0.21500
H335        H  0.43108352  0.42427823  0.87674493     0.26800
H336        H  0.36763595  0.42164498  0.00168311     0.15700
C337        C  0.08734016  0.49888983  0.03489821    -0.11600
C338        C  0.10312926  0.00456871  0.00237683     0.14900
C339        C  0.09234119  0.00694927  0.96231188     0.01800
C340        C  0.06695831  0.00541563  0.96145556    -0.16000
C341        C  0.05204736  0.00201827  0.99975887    -0.10800
C342        C  0.06221303  0.49814753  0.03437012     0.08500
C343        C  0.12898748  0.00405249  0.00458806     0.09600
S344        S  0.11004729  0.01220179  0.91121191    -0.25100
H345        H  0.05898375  0.00740524  0.93051449     0.19800
S346        S  0.04407542  0.49074491  0.08555964    -0.30800
H347        H  0.09448445  0.49455303  0.06496410     0.10100
C348        C  0.15309974  0.02628123  0.02123889     0.03400
C349        C  0.17725484  0.02499876  0.02178736    -0.13100
C350        C  0.17790411  0.00203156  0.00550894    -0.08800
C351        C  0.15399201  0.48119445  0.97808458     0.06800
C352        C  0.12974634  0.48207529  0.97997764    -0.13900
S353        S  0.15323977  0.05658006  0.04047117    -0.30800
H354        H  0.19568729  0.04191193  0.03521416     0.11100
S355        S  0.15288467  0.45292529  0.94900473    -0.27900
H356        H  0.11136031  0.46569440  0.96533913     0.08300
H357        H  0.02162889  0.49296390  0.07225425     0.26700
H358        H  0.18116136  0.07162027  0.05107579     0.21500
H359        H  0.17778215  0.46908838  0.92713743     0.26800
H360        H  0.13652996  0.02742442  0.92855670     0.15700
C361        C  0.41171592  0.50496080  0.96032775    -0.11600
C362        C  0.39935433  0.00022875  0.00695519     0.14900
C363        C  0.41344498  0.99686014  0.04220090     0.01800
C364        C  0.43777550  0.99673527  0.03439688    -0.16000
C365        C  0.44891446  0.50111533  0.99199415    -0.10800
C366        C  0.43586718  0.50412077  0.95508164     0.08500
C367        C  0.37358734  0.00082309  0.01269579     0.09600
S368        S  0.40187242  0.99325989  0.09783816    -0.25100
H369        H  0.44870192  0.99450550  0.06160454     0.19800
S370        S  0.44982488  0.50701587  0.90129067    -0.30800
H371        H  0.40124338  0.50665735  0.93199517     0.10100
C372        C  0.37236432  0.02461943  0.00385521     0.03400
C373        C  0.34719520  0.02381337  0.00615958    -0.13100
C374        C  0.32303105  0.99981248  0.01801331    -0.08800
C375        C  0.32634455  0.48044281  0.02185255     0.06800
C376        C  0.35146329  0.48129442  0.02014367    -0.13900
S377        S  0.40302510  0.05621464  0.99030652    -0.30800
H378        H  0.34636442  0.04197827  0.99801830     0.11100
S379        S  0.29830059  0.45054119  0.04612558    -0.27900
H380        H  0.35276909  0.46379217  0.03115996     0.08300
H381        H  0.43073737  0.51148033  0.87889081     0.26700
H382        H  0.39067892  0.07233179  0.98566856     0.21500
H383        H  0.28942316  0.46546561  0.07129889     0.26800
H384        H  0.38969378  0.00954237  0.09366779     0.15700
C385        C  0.02446714  0.14821233  0.50816252    -0.11600
C386        C  0.99928836  0.12407833  0.50466376     0.14900
C387        C  0.47664941  0.12572971  0.50295862     0.01800
C388        C  0.47810234  0.15114279  0.50301511    -0.16000
C389        C  0.50317723  0.17576289  0.50724036    -0.10800
C390        C  0.02631588  0.17381916  0.50695614     0.08500
C391        C  0.99891352  0.09778782  0.50566299     0.09600
S392        S  0.44322607  0.09568948  0.49763460    -0.25100
H393        H  0.45922669  0.15151881  0.49969151     0.19800
S394        S  0.06009361  0.20298832  0.51264164    -0.30800
H395        H  0.04291819  0.14704698  0.51202559     0.10100
C396        C  0.99799266  0.08394639  0.46701107     0.03400
C397        C  0.99795200  0.05921055  0.46948391    -0.13100
C398        C  0.49907623  0.04784684  0.50562484    -0.08800
C399        C  0.50208052  0.06193581  0.54527624     0.06800
C400        C  0.50312033  0.08717025  0.54444913    -0.13900
S401        S  0.99708263  0.09791844  0.41458715    -0.30800
H402        H  0.99716118  0.04849041  0.43985648     0.11100
S403        S  0.50450399  0.04931646  0.59816331    -0.27900
H404        H  0.50536365  0.09799126  0.57475239     0.08300
H405        H  0.05299060  0.21332216  0.54890699     0.26700
H406        H  0.99522721  0.07630480  0.38920605     0.21500
H407        H  0.50346065  0.02503794  0.58518263     0.26800
H408        H  0.44925362  0.07686559  0.51706203     0.15700
C409        C  0.00752019  0.41252511  0.54021169    -0.11600
C410        C  0.49606678  0.39386406  0.50946560     0.14900
C411        C  0.48674824  0.40170215  0.47269093     0.01800
C412        C  0.48836319  0.42711217  0.47237977    -0.16000
C413        C  0.49799881  0.44453404  0.50871403    -0.10800
C414        C  0.00676580  0.43685900  0.54149974     0.08500
C415        C  0.00214456  0.37135738  0.50256769     0.09600
S416        S  0.47273101  0.38029484  0.42515474    -0.25100
H417        H  0.48178102  0.43327530  0.44359986     0.19800
S418        S  0.01403425  0.45451909  0.59319328    -0.30800
H419        H  0.01310581  0.40563126  0.56932825     0.10100
C420        C  0.02288169  0.36926468  0.48059362     0.03400
C421        C  0.02233686  0.34418955  0.48030017    -0.13100
C422        C  0.49805876  0.31907070  0.50893608    -0.08800
C423        C  0.47790617  0.32131452  0.53305132     0.06800
C424        C  0.47771943  0.34593538  0.53286140    -0.13900
S425        S  0.05014667  0.39861919  0.45347167    -0.30800
H426        H  0.03787988  0.34230946  0.46261213     0.11100
S427        S  0.45270081  0.29410492  0.56630816    -0.27900
H428        H  0.46216710  0.34757320  0.55103565     0.08300
H429        H  0.00304692  0.47139369  0.58420267     0.26700
H430        H  0.06446890  0.38571696  0.43895514     0.21500
H431        H  0.47092777  0.28609030  0.58220599     0.26800
H432        H  0.46188623  0.35520118  0.44709368     0.15700
C433        C  0.01855526  0.24788610  0.70392312    -0.11600
C434        C  0.49886075  0.25356659  0.73114931     0.14900
C435        C  0.47877836  0.25456766  0.70524535     0.01800
C436        C  0.47938491  0.25188559  0.66001022    -0.16000
C437        C  0.50019541  0.24921972  0.63967798    -0.10800
C438        C  0.01984663  0.24665579  0.65853282     0.08500
C439        C  0.49814476  0.25396942  0.77926570     0.09600
S440        S  0.45213540  0.25961164  0.72771755    -0.25100
H441        H  0.46383887  0.25260470  0.64046621     0.19800
S442        S  0.04624629  0.24137482  0.63601213    -0.30800
H443        H  0.03367341  0.24645136  0.72359416     0.10100
C444        C  0.47817193  0.23155900  0.80308774     0.03400
C445        C  0.47870354  0.23264968  0.84872722    -0.13100
C446        C  0.49907741  0.25548985  0.87111269    -0.08800
C447        C  0.01876622  0.27557420  0.83942295     0.06800
C448        C  0.01791562  0.27380268  0.79396668    -0.13900
S449        S  0.45285123  0.20104313  0.77547522    -0.30800
H450        H  0.46366805  0.21525790  0.86711618     0.11100
S451        S  0.04516587  0.30688530  0.86330977    -0.27900
H452        H  0.03327478  0.29069856  0.77500470     0.08300
H453        H  0.02882266  0.22208069  0.60513973     0.26700
H454        H  0.43914405  0.18631962  0.81302723     0.21500
H455        H  0.02830960  0.30797184  0.89607267     0.26800
H456        H  0.46664824  0.27422852  0.76488549     0.15700
C457        C  0.48141930  0.22759514  0.20890952    -0.11600
C458        C  0.00292464  0.24878471  0.22419026     0.14900
C459        C  0.02299655  0.27141185  0.20074076     0.01800
C460        C  0.02284272  0.27060140  0.15514688    -0.16000
C461        C  0.50169057  0.24807279  0.13911159    -0.10800
C462        C  0.48124071  0.22606130  0.16339322     0.08500
C463        C  0.00227189  0.24825054  0.27233123     0.09600
S464        S  0.04916642  0.30195978  0.22693316    -0.25100
H465        H  0.03795241  0.28831353  0.13740410     0.19800
S466        S  0.45531150  0.19480376  0.13865988    -0.30800
H467        H  0.46575274  0.21061812  0.22730040     0.10100
C468        C  0.48115440  0.25139770  0.30334598     0.03400
C469        C  0.48121275  0.25005368  0.34900387    -0.13100
C470        C  0.50147103  0.24744549  0.37129526    -0.08800
C471        C  0.02078061  0.24229639  0.34041303     0.06800
C472        C  0.02095847  0.24342081  0.29486253    -0.13900
S473        S  0.45547244  0.25592118  0.27583524    -0.30800
H474        H  0.46576236  0.25163635  0.36750330     0.11100
S475        S  0.04373078  0.23313013  0.36604170    -0.27900
H476        H  0.03539010  0.23993878  0.27673809     0.08300
H477        H  0.47262339  0.19413874  0.10630901     0.26700
H478        H  0.44083936  0.25530872  0.31330560     0.21500
H479        H  0.02530608  0.21706127  0.39887241     0.26800
H480        H  0.03400240  0.30036720  0.26420824     0.15700
C481        C  0.00854701  0.09361887  0.95192481    -0.11600
C482        C  0.00026562  0.10206695  0.98898797     0.14900
C483        C  0.49123918  0.08505671  0.02785238     0.01800
C484        C  0.49181946  0.06068199  0.02553197    -0.16000
C485        C  0.49931701  0.05269410  0.98700718    -0.10800
C486        C  0.00802198  0.06860758  0.95096756     0.08500
C487        C  0.00169302  0.12888825  0.98827689     0.09600
S488        S  0.48027959  0.09286533  0.07837225    -0.25100
H489        H  0.48623702  0.04773873  0.05403222     0.19800
S490        S  0.01841298  0.05988661  0.90054822    -0.30800
H491        H  0.01549551  0.10667974  0.92347777     0.10100
C492        C  0.02310088  0.15198642  0.00882619     0.03400
C493        C  0.02283310  0.17668840  0.00906865    -0.13100
C494        C  0.50064836  0.17911859  0.99396803    -0.08800
C495        C  0.48016160  0.15651257  0.97054570     0.06800
C496        C  0.48002246  0.13172319  0.97052273    -0.13900
S497        S  0.05066521  0.14989848  0.03473642    -0.30800
H498        H  0.03885440  0.19425297  0.02592836     0.11100
S499        S  0.45443947  0.15822295  0.93828657    -0.27900
H500        H  0.46411562  0.11437120  0.95299916     0.08300
H501        H  0.01043225  0.03263496  0.90994625     0.26700
H502        H  0.06628346  0.17766583  0.04620561     0.21500
H503        H  0.47208673  0.18479869  0.92281948     0.26800
H504        H  0.46885137  0.10755051  0.05974902     0.15700
C505        C  0.50647293  0.41388208  0.96125596    -0.11600
C506        C  0.49935225  0.39979799  0.00099003     0.14900
C507        C  0.99264718  0.41059357  0.03274988     0.01800
C508        C  0.99389225  0.43583228  0.02939512    -0.16000
C509        C  0.50040651  0.45000579  0.99257011    -0.10800
C510        C  0.50682456  0.43865296  0.95637064     0.08500
C511        C  0.49908488  0.37354779  0.00389144     0.09600
S512        S  0.98146811  0.39274532  0.08394160    -0.25100
H513        H  0.98833542  0.44367625  0.05741200     0.19800
S514        S  0.51529291  0.45390681  0.90282664    -0.30800
H515        H  0.51155858  0.40528858  0.93360785     0.10100
C516        C  0.47910723  0.35003615  0.98206755     0.03400
C517        C  0.47960718  0.32557751  0.98550902    -0.13100
C518        C  0.49965976  0.32407170  0.01038249    -0.08800
C519        C  0.02189271  0.34856184  0.02261630     0.06800
C520        C  0.02147779  0.37305457  0.01922381    -0.13900
S521        S  0.45267082  0.35105686  0.95048386    -0.30800
H522        H  0.46458121  0.30763017  0.96809576     0.11100
S523        S  0.04963406  0.34956043  0.05298928    -0.27900
H524        H  0.03797676  0.39157564  0.03334532     0.08300
H525        H  0.51013658  0.47540262  0.90994073     0.26700
H526        H  0.43930328  0.32362038  0.93677189     0.21500
H527        H  0.03324942  0.32434522  0.07384888     0.26800
H528        H  0.96945881  0.36619344  0.06663173     0.15700
O529        O  0.02042300  0.76347617  0.93653735    -0.73200
O530        O  0.02232298  0.76038869  0.06714640    -0.74200
O531        O  0.02128639  0.72642518  0.99776374    -0.62800
O532        O  0.02161338  0.79731465  0.00553115    -0.71200
O533        O  0.47869038  0.77579719  0.99432312    -0.70700
O534        O  0.48038298  0.70576479  0.98947444    -0.62000
O535        O  0.48038357  0.73981288  0.05734576    -0.74500
O536        O  0.47909222  0.74154522  0.92662596    -0.73300
Cu537      Cu  0.02299309  0.76266826  0.00174395     1.04600
Cu538      Cu  0.47806757  0.73995338  0.99203075     1.04300
C539        C  0.99748400  0.75260532  0.91669273     0.93000
C540        C  0.99992135  0.74862099  0.08848977     0.92200
C541        C  0.99861072  0.70389002  0.99676631     0.84300
C542        C  0.99901738  0.79722646  0.00704688     0.90600
O543        O  0.47992737  0.77246638  0.49307505    -0.73200
O544        O  0.48073746  0.70184892  0.49030129    -0.74200
O545        O  0.48006426  0.73639817  0.55659096    -0.62800
O546        O  0.48048545  0.73786074  0.42589823    -0.71200
O547        O  0.02442943  0.75992753  0.43784887    -0.70700
O548        O  0.02300898  0.75977097  0.56873087    -0.62000
O549        O  0.02447664  0.72472257  0.50329319    -0.74500
O550        O  0.02302694  0.79500387  0.50331516    -0.73300
Cu551      Cu  0.47872307  0.73636592  0.49133474     1.04600
Cu552      Cu  0.02532310  0.76067256  0.50328834     1.04300
C553        C  0.50243913  0.79516799  0.49413049     0.93000
C554        C  0.50345257  0.70206550  0.49097443     0.92200
C555        C  0.50263820  0.74773604  0.57748312     0.84300
C556        C  0.50324498  0.74899473  0.40554561     0.90600
C557        C  0.47633764  0.97683585  0.98451963     0.02000
C558        C  0.50174330  0.97754582  0.98523276     0.02000
C559        C  0.02602248  0.50248454  0.99107337     0.02000
C560        C  0.02536428  0.52719124  0.98955609     0.02000
C561        C  0.50015186  0.52625946  0.98804422     0.02000
C562        C  0.47544799  0.00135680  0.98663170     0.02000
C563        C  0.02360475  0.52191354  0.49764311     0.02000
C564        C  0.02350142  0.99652522  0.50953515     0.02000
C565        C  0.49882028  0.97155987  0.49951088     0.02000
C566        C  0.47381237  0.97151239  0.50125044     0.02000
C567        C  0.47381215  0.99647829  0.50399862     0.02000
C568        C  0.49919293  0.52134791  0.50406109     0.02000
O569        O  0.29790679  0.52524713  0.00205749    -0.73200
O570        O  0.22692486  0.52515232  0.99731608    -0.74200
O571        O  0.26167423  0.52598349  0.06483215    -0.62800
O572        O  0.26327116  0.52416983  0.93400342    -0.71200
O573        O  0.23867104  0.97591033  0.94875881    -0.70700
O574        O  0.23852565  0.98061583  0.07940689    -0.62000
O575        O  0.20347871  0.97886295  0.01178152    -0.74500
O576        O  0.27386058  0.97764817  0.01636307    -0.73300
Cu577      Cu  0.26322222  0.52673343  0.99943668     1.04600
Cu578      Cu  0.23781569  0.97669268  0.01424628     1.04300
C579        C  0.29784371  0.50263157  0.00361060     0.93000
C580        C  0.20431893  0.50251252  0.99759606     0.92200
C581        C  0.25013714  0.50357199  0.08608558     0.84300
C582        C  0.25206553  0.50118125  0.91414554     0.90600
O583        O  0.29818608  0.52403878  0.50077271    -0.73200
O584        O  0.22702937  0.52345574  0.50135013    -0.74200
O585        O  0.26224131  0.52247099  0.56645973    -0.62800
O586        O  0.26312064  0.52490167  0.43563187    -0.71200
O587        O  0.24123224  0.98294084  0.44529832    -0.70700
O588        O  0.24090766  0.97863832  0.57569903    -0.62000
O589        O  0.20531729  0.98014546  0.51145464    -0.74500
O590        O  0.27683685  0.98141344  0.50906633    -0.73300
Cu591      Cu  0.26341870  0.52529254  0.50119557     1.04600
Cu592      Cu  0.24033043  0.97923943  0.51030728     1.04300
C593        C  0.29936931  0.00407086  0.51130402     0.93000
C594        C  0.20501520  0.00258764  0.51199600     0.92200
C595        C  0.25193734  0.00057094  0.59833751     0.84300
C596        C  0.25249200  0.00618895  0.42648455     0.90600
O597        O  0.25955118  0.73891019  0.92238359    -0.73200
O598        O  0.26331372  0.74270008  0.05281321    -0.74200
O599        O  0.22568828  0.70562473  0.99115500    -0.62800
O600        O  0.29710942  0.77605182  0.98412980    -0.71200
O601        O  0.27504555  0.79917121  0.98375573    -0.70700
O602        O  0.20367848  0.72886121  0.99122415    -0.62000
O603        O  0.24143577  0.76606336  0.05295145    -0.74500
O604        O  0.23742056  0.76201950  0.92241949    -0.73300
Cu605      Cu  0.26218687  0.74001714  0.98762662     1.04600
Cu606      Cu  0.23862235  0.76482526  0.98761938     1.04300
C607        C  0.24785902  0.74982494  0.90173958     0.93000
C608        C  0.25305167  0.75504123  0.07354080     0.92200
C609        C  0.20337288  0.70612746  0.99255526     0.84300
C610        C  0.29741655  0.79877105  0.98229501     0.90600
O611        O  0.25652435  0.73630849  0.55325038    -0.73200
O612        O  0.25820419  0.73774136  0.42243433    -0.74200
O613        O  0.29346075  0.77147516  0.48965729    -0.62800
O614        O  0.22116353  0.70232977  0.48608738    -0.71200
O615        O  0.19979370  0.72601160  0.48692932    -0.70700
O616        O  0.27242585  0.79562295  0.48925814    -0.62000
O617        O  0.23661747  0.76137927  0.42268454    -0.74500
O618        O  0.23536840  0.76039519  0.55317033    -0.73300
Cu619      Cu  0.25805206  0.73611761  0.48785935     1.04600
Cu620      Cu  0.23532039  0.76169777  0.48798888     1.04300
C621        C  0.24568329  0.74815391  0.57383676     0.93000
C622        C  0.24741432  0.74959717  0.40185671     0.92200
C623        C  0.29446381  0.79452862  0.48978538     0.84300
C624        C  0.19891906  0.70301302  0.48588192     0.90600
C625        C  0.24695618  0.72895356  0.78349718    -0.11600
C626        C  0.24929790  0.75178018  0.76169443     0.14900
C627        C  0.25032317  0.77347603  0.78600931     0.01800
C628        C  0.24907376  0.77189128  0.83149932    -0.16000
C629        C  0.24709421  0.74921070  0.85354750    -0.10800
C630        C  0.24550133  0.72725142  0.82896649     0.08500
C631        C  0.24886216  0.75143035  0.71356418     0.09600
S632        S  0.25347675  0.80380172  0.76111288    -0.25100
H633        H  0.25035875  0.78888586  0.84987093     0.19800
S634        S  0.23998475  0.69587236  0.85318632    -0.30800
H635        H  0.24550245  0.71198962  0.76479480     0.10100
C636        C  0.27122121  0.75422211  0.68920245     0.03400
C637        C  0.26939893  0.75249329  0.64362817    -0.13100
C638        C  0.24573214  0.74825395  0.62192833    -0.08800
C639        C  0.22328712  0.74530061  0.64661063     0.06800
C640        C  0.22521018  0.74717338  0.69204667    -0.13900
S641        S  0.30233744  0.76082333  0.71611920    -0.30800
H642        H  0.28666335  0.75498235  0.62472396     0.11100
S643        S  0.19121014  0.73776952  0.62242407    -0.27900
H644        H  0.20790283  0.74466396  0.71091568     0.08300
H645        H  0.22172182  0.69498809  0.88518478     0.26700
H646        H  0.31756325  0.76399846  0.67811329     0.21500
H647        H  0.19162323  0.72048826  0.58972823     0.26800
H648        H  0.26751635  0.80327208  0.72366067     0.15700
C649        C  0.25517559  0.77629177  0.19200171    -0.11600
C650        C  0.25196830  0.75305937  0.21365655     0.14900
C651        C  0.24946956  0.73078433  0.18906688     0.01800
C652        C  0.25090447  0.73250548  0.14361539    -0.16000
C653        C  0.25391582  0.75564724  0.12173602    -0.10800
C654        C  0.25646224  0.77797096  0.14646299     0.08500
C655        C  0.25140731  0.75272634  0.26185690     0.09600
S656        S  0.24377759  0.69936038  0.21352402    -0.25100
H657        H  0.24868512  0.71515678  0.12510157     0.19800
S658        S  0.26266956  0.80959287  0.12222707    -0.30800
H659        H  0.25726199  0.79348426  0.21082379     0.10100
C660        C  0.27298036  0.75395582  0.28658245     0.03400
C661        C  0.27092197  0.75241163  0.33217077    -0.13100
C662        C  0.24786620  0.75000342  0.35362675    -0.08800
C663        C  0.22630291  0.74880676  0.32852786     0.06800
C664        C  0.22849466  0.75055602  0.28311562    -0.13900
S665        S  0.30348635  0.75839518  0.26016916    -0.30800
H666        H  0.28759999  0.75367189  0.35127509     0.11100
S667        S  0.19481600  0.74344493  0.35208912    -0.27900
H668        H  0.21181892  0.74937576  0.26403458     0.08300
H669        H  0.28022195  0.80976381  0.08954344     0.26700
H670        H  0.31688546  0.75742734  0.29814292     0.21500
H671        H  0.19307904  0.72402439  0.38243029     0.26800
H672        H  0.22942987  0.70043662  0.25016997     0.15700
C673        C  0.25284303  0.97733963  0.71450977    -0.11600
C674        C  0.24933313  0.49792201  0.72604849     0.14900
C675        C  0.24659706  0.51782996  0.70255991     0.01800
C676        C  0.24800508  0.51812069  0.65706432    -0.16000
C677        C  0.25209536  0.99911595  0.64653176    -0.10800
C678        C  0.25458563  0.97860499  0.66895788     0.08500
C679        C  0.25000502  0.49796822  0.77419268     0.09600
S680        S  0.24129638  0.54341834  0.72866244    -0.25100
H681        H  0.24555771  0.53330875  0.63935371     0.19800
S682        S  0.26184233  0.95463685  0.64181581    -0.30800
H683        H  0.25496750  0.96174721  0.73154153     0.10100
C684        C  0.22676652  0.97693056  0.81059230     0.03400
C685        C  0.22789198  0.97753193  0.85633065    -0.13100
C686        C  0.25242372  0.50013395  0.86599835    -0.08800
C687        C  0.27504507  0.51909071  0.84103678     0.06800
C688        C  0.27340056  0.51805027  0.79553743    -0.13900
S689        S  0.19553141  0.95328269  0.78292503    -0.30800
H690        H  0.20994802  0.96377427  0.87493998     0.11100
S691        S  0.30702505  0.54415117  0.86498815    -0.27900
H692        H  0.29067433  0.53276040  0.77650095     0.08300
H693        H  0.27991242  0.97359838  0.61121635     0.26700
H694        H  0.18027310  0.94043174  0.82053265     0.21500
H695        H  0.30651546  0.52694162  0.89848685     0.26800
H696        H  0.22730944  0.52771810  0.76526147     0.15700
C697        C  0.22909025  0.99075167  0.30887963    -0.11600
C698        C  0.25231251  0.50266390  0.27437443     0.14900
C699        C  0.27610462  0.52013284  0.29828756     0.01800
C700        C  0.27494777  0.52039891  0.34385128    -0.16000
C701        C  0.25192505  0.00748594  0.37851742    -0.10800
C702        C  0.22801615  0.99050620  0.35437002     0.08500
C703        C  0.25181702  0.50270898  0.22624202     0.09600
S704        S  0.30856679  0.54207880  0.27259096    -0.25100
H705        H  0.29335647  0.53360303  0.36207524     0.19800
S706        S  0.19529581  0.96880829  0.37948646    -0.30800
H707        H  0.21070209  0.97764506  0.29051820     0.10100
C708        C  0.25085133  0.98434735  0.21572903     0.03400
C709        C  0.24949861  0.98380896  0.17012174    -0.13100
C710        C  0.24988999  0.50370062  0.13439940    -0.08800
C711        C  0.25142035  0.52557335  0.15925592     0.06800
C712        C  0.25285187  0.52501844  0.20471843    -0.13900
S713        S  0.25049631  0.95641628  0.24477549    -0.30800
H714        H  0.24854097  0.96669353  0.15266841     0.11100
S715        S  0.25012922  0.55402549  0.13551510    -0.27900
H716        H  0.25408117  0.54181413  0.22363391     0.08300
H717        H  0.19921695  0.98666504  0.41423532     0.26700
H718        H  0.24668009  0.93981553  0.20821972     0.21500
H719        H  0.22948433  0.53789863  0.10536884     0.26800
H720        H  0.30435460  0.52511926  0.23639222     0.15700
C721        C  0.12256817  0.64964086  0.48404893    -0.11600
C722        C  0.12358625  0.62550708  0.48757055     0.14900
C723        C  0.14906235  0.62676572  0.48893642     0.01800
C724        C  0.17297855  0.65221382  0.48812614    -0.16000
C725        C  0.17234079  0.67676970  0.48500807    -0.10800
C726        C  0.14648130  0.67514973  0.48222496     0.08500
C727        C  0.09772932  0.59933439  0.49059771     0.09600
S728        S  0.15249948  0.59673717  0.49277383    -0.25100
H729        H  0.19231624  0.65266445  0.49010446     0.19800
S730        S  0.14206884  0.70437550  0.47622127    -0.30800
H731        H  0.10289606  0.64855254  0.48265210     0.10100
C732        C  0.08791164  0.58619327  0.53087964     0.03400
C733        C  0.06368106  0.56098747  0.53205570    -0.13100
C734        C  0.04927688  0.54849867  0.49373354    -0.08800
C735        C  0.05913802  0.56182152  0.45327191     0.06800
C736        C  0.08318643  0.58718426  0.45231292    -0.13900
S737        S  0.10619668  0.60157115  0.58072741    -0.30800
H738        H  0.05591531  0.55085135  0.56292403     0.11100
S739        S  0.04281847  0.54789170  0.40148559    -0.27900
H740        H  0.09092831  0.59738809  0.42136925     0.08300
H741        H  0.15899893  0.71412377  0.43932550     0.26700
H742        H  0.08860600  0.58034747  0.60878660     0.21500
H743        H  0.01854554  0.52551697  0.41646670     0.26800
H744        H  0.12784294  0.57840227  0.47208454     0.15700
C745        C  0.40713244  0.91063364  0.46252570    -0.11600
C746        C  0.39810049  0.89501615  0.50068358     0.14900
C747        C  0.41436370  0.90422926  0.53860944     0.01800
C748        C  0.43877717  0.92926265  0.53788351    -0.16000
C749        C  0.44761511  0.94516395  0.49992217    -0.10800
C750        C  0.43183118  0.93538591  0.46147021     0.08500
C751        C  0.37163403  0.86924211  0.49944038     0.09600
S752        S  0.40516267  0.88510421  0.58877950    -0.25100
H753        H  0.45114571  0.93631981  0.56711505     0.19800
S754        S  0.44194207  0.95286297  0.40972823    -0.30800
H755        H  0.39483642  0.90334854  0.43319449     0.10100
C756        C  0.34787999  0.86730516  0.51763418     0.03400
C757        C  0.32293056  0.84280875  0.51349425    -0.13100
C758        C  0.32123006  0.82014687  0.49151886    -0.08800
C759        C  0.34522725  0.82241271  0.47296447     0.06800
C760        C  0.37008103  0.84679354  0.47744686    -0.13900
S761        S  0.34932548  0.89610860  0.54571688    -0.30800
H762        H  0.30471397  0.84118443  0.52794391     0.11100
S763        S  0.34548357  0.79565450  0.44128285    -0.27900
H764        H  0.38834529  0.84851432  0.46289492     0.08300
H765        H  0.46969415  0.97040944  0.41884294     0.26700
H766        H  0.32123997  0.88385828  0.55468312     0.21500
H767        H  0.32113117  0.78862180  0.41886127     0.26800
H768        H  0.39039255  0.85908092  0.56962496     0.15700
C769        C  0.14973485  0.51992990  0.47997622    -0.11600
C770        C  0.12706114  0.99897719  0.50933018     0.14900
C771        C  0.12973516  0.97763061  0.52787461     0.01800
C772        C  0.15535833  0.97949071  0.52853773    -0.16000
C773        C  0.17843884  0.00187356  0.50995468    -0.10800
C774        C  0.17493927  0.52093535  0.47850377     0.08500
C775        C  0.10080087  0.99874394  0.50956699     0.09600
S776        S  0.10129896  0.94757600  0.55133821    -0.25100
H777        H  0.15725185  0.96324062  0.54376179     0.19800
S778        S  0.20160139  0.54805752  0.44699321    -0.30800
H779        H  0.14746441  0.53568053  0.46371391     0.10100
C780        C  0.09139503  0.50570840  0.53809365     0.03400
C781        C  0.06632480  0.50501809  0.53610087    -0.13100
C782        C  0.04999003  0.99680201  0.50814650    -0.08800
C783        C  0.05994554  0.99051134  0.47003053     0.06800
C784        C  0.08524734  0.99168281  0.47128206    -0.13900
S785        S  0.11113317  0.51605717  0.58780682    -0.30800
H786        H  0.05852572  0.50990643  0.56484324     0.11100
S787        S  0.04211776  0.98097684  0.41847323    -0.27900
H788        H  0.09282147  0.98675851  0.44219526     0.08300
H789        H  0.21053651  0.53133822  0.42759626     0.26700
H790        H  0.09327135  0.52157286  0.61190480     0.21500
H791        H  0.01954273  0.98355981  0.42948137     0.26800
H792        H  0.08087803  0.94720167  0.52480901     0.15700
C793        C  0.37428673  0.52397082  0.49029859    -0.11600
C794        C  0.37351353  0.99986711  0.50922090     0.14900
C795        C  0.34871136  0.97808919  0.49340185     0.01800
C796        C  0.32519549  0.98032308  0.49417702    -0.16000
C797        C  0.32558283  0.00382531  0.51043157    -0.10800
C798        C  0.35041617  0.52555581  0.48913732     0.08500
C799        C  0.39924468  0.99918335  0.50763381     0.09600
S800        S  0.34561314  0.94706246  0.47108133    -0.25100
H801        H  0.30635090  0.96340094  0.48172151     0.19800
S802        S  0.35455788  0.55858668  0.47711044    -0.30800
H803        H  0.39383753  0.54236724  0.48587488     0.10100
C804        C  0.41417171  0.00444805  0.46865051     0.03400
C805        C  0.43817269  0.00305491  0.46829748    -0.13100
C806        C  0.44764654  0.99666668  0.50617040    -0.08800
C807        C  0.43136113  0.49121495  0.54040363     0.06800
C808        C  0.40712308  0.49212352  0.53728841    -0.13900
S809        S  0.40279987  0.01324981  0.41952663    -0.30800
H810        H  0.44977671  0.00709024  0.43845980     0.11100
S811        S  0.44101088  0.48305776  0.59183999    -0.27900
H812        H  0.39411872  0.48771844  0.56558798     0.08300
H813        H  0.33469391  0.54847992  0.44391963     0.26700
H814        H  0.42451050  0.01670883  0.39278566     0.21500
H815        H  0.41798723  0.47898116  0.61553962     0.26800
H816        H  0.36851783  0.94851166  0.49141080     0.15700
C817        C  0.14848636  0.63268746  0.01564079    -0.11600
C818        C  0.12637581  0.63089938  0.99220267     0.14900
C819        C  0.12923601  0.65441385  0.97121980     0.01800
C820        C  0.15451379  0.67860791  0.97208130    -0.16000
C821        C  0.17689765  0.68029031  0.99468727    -0.10800
C822        C  0.17345743  0.65716083  0.01783354     0.08500
C823        C  0.10061023  0.60431431  0.99094855     0.09600
S824        S  0.10154174  0.65507754  0.94308759    -0.25100
H825        H  0.15672918  0.69629425  0.95475013     0.19800
S826        S  0.19950728  0.65782676  0.05248228    -0.30800
H827        H  0.14614782  0.61488829  0.03278026     0.10100
C828        C  0.09071228  0.58920972  0.95205125     0.03400
C829        C  0.06597675  0.56439841  0.95264245    -0.13100
C830        C  0.05126467  0.55389514  0.99143861    -0.08800
C831        C  0.06166744  0.56873534  0.03069230     0.06800
C832        C  0.08611183  0.59377190  0.02983892    -0.13900
S833        S  0.11005575  0.60088084  0.90206379    -0.30800
H834        H  0.05817979  0.55284788  0.92280607     0.11100
S835        S  0.04565271  0.55718000  0.08330290    -0.27900
H836        H  0.09396342  0.60523532  0.05986321     0.08300
H837        H  0.20876654  0.68443850  0.06825170     0.26700
H838        H  0.09143375  0.57920760  0.87551646     0.21500
H839        H  0.02127642  0.53421971  0.07014710     0.26800
H840        H  0.08017764  0.63413854  0.96708062     0.15700
C841        C  0.37250333  0.85149148  0.96461836    -0.11600
C842        C  0.37361709  0.87505663  0.98160778     0.14900
C843        C  0.34925686  0.87388834  0.99551391     0.01800
C844        C  0.32484045  0.84881721  0.99532704    -0.16000
C845        C  0.32372868  0.82491238  0.97950148    -0.09000
C846        C  0.34783792  0.82671091  0.96232881     0.08500
C847        C  0.40036997  0.90061422  0.98323561     0.09600
S848        S  0.34779607  0.90360480  0.01324108    -0.25100
H849        H  0.30652919  0.84805228  0.00768509     0.19800
S850        S  0.34845918  0.79879973  0.93492985    -0.30800
H851        H  0.39098510  0.85253980  0.95241910     0.10100
C852        C  0.41268739  0.91329944  0.02305850     0.03400
C853        C  0.43734275  0.93821426  0.02256077    -0.13100
C854        C  0.45036135  0.95021281  0.98316455    -0.08800
C855        C  0.43865199  0.93688973  0.94347781     0.06800
C856        C  0.41366595  0.91233087  0.94390535    -0.13900
S857        S  0.39759693  0.89734647  0.07444719    -0.30800
H858        H  0.44676693  0.94834919  0.05291193     0.11100
S859        S  0.45516842  0.95114219  0.89219449    -0.27900
H860        H  0.40418107  0.90230271  0.91349927     0.08300
H861        H  0.32379031  0.79021653  0.91240695     0.26700
H862        H  0.41658978  0.91851628  0.10137801     0.21500
H863        H  0.43772228  0.92858437  0.86608903     0.26800
H864        H  0.36973702  0.92274262  0.98783228     0.15700
C865        C  0.08842218  0.00132767  0.04085936    -0.11600
C866        C  0.10336997  0.50505109  0.99722227     0.14900
C867        C  0.09414349  0.51077354  0.95816237     0.01800
C868        C  0.06885924  0.50946036  0.95729189    -0.16000
C869        C  0.05264759  0.50326347  0.99480866    -0.10800
C870        C  0.06306806  0.00011138  0.04013359     0.08500
C871        C  0.12907582  0.50427061  0.99894713     0.09600
S872        S  0.11359838  0.51975402  0.90828671    -0.25100
H873        H  0.06176079  0.51336918  0.92688092     0.19800
S874        S  0.04651834  0.99643718  0.09205596    -0.30800
H875        H  0.09670000  0.99948871  0.07168608     0.10100
C876        C  0.15302074  0.52587280  0.01718373     0.03400
C877        C  0.17729382  0.52484474  0.01604154    -0.13100
C878        C  0.17816589  0.50267067  0.99679214    -0.08800
C879        C  0.15366311  0.98010864  0.98771796     0.06800
C880        C  0.12950483  0.98118338  0.98823317    -0.13900
S881        S  0.15277651  0.55509263  0.04062614    -0.30800
H882        H  0.19564900  0.54132900  0.03044162     0.11100
S883        S  0.15232843  0.95091487  0.96146965    -0.27900
H884        H  0.11103218  0.96432809  0.97466695     0.08300
H885        H  0.02126310  0.99208877  0.07725722     0.26700
H886        H  0.18052555  0.56962021  0.05243145     0.21500
H887        H  0.17726491  0.96631242  0.93931693     0.26800
H888        H  0.13950199  0.53300572  0.92802090     0.15700
C889        C  0.40989943  0.00302942  0.96467424    -0.11600
C890        C  0.40078651  0.50381549  0.00181959     0.14900
C891        C  0.41405937  0.50111421  0.03885495     0.01800
C892        C  0.43764315  0.49929252  0.03344875    -0.16000
C893        C  0.44870566  0.00029884  0.99223382    -0.10800
C894        C  0.43445724  0.00326945  0.95697781     0.08500
C895        C  0.37497968  0.50444780  0.00485885     0.09600
S896        S  0.40249534  0.50074397  0.09376465    -0.25100
H897        H  0.44787420  0.49737131  0.06191754     0.19800
S898        S  0.44737549  0.00746186  0.90219354    -0.30800
H899        H  0.39885537  0.00528380  0.93770138     0.10100
C900        C  0.37337879  0.52736565  0.99110551     0.03400
C901        C  0.34805964  0.52627634  0.99155761    -0.13100
C902        C  0.32422335  0.50287685  0.00610493    -0.08800
C903        C  0.32482643  0.97642346  0.02942292     0.06800
C904        C  0.34984046  0.97706787  0.02571540    -0.13900
S905        S  0.40368376  0.55820976  0.97374450    -0.30800
H906        H  0.34681749  0.54367994  0.97999615     0.11100
S907        S  0.29648045  0.94536679  0.05024818    -0.27900
H908        H  0.35087477  0.95892941  0.03334592     0.08300
H909        H  0.42575061  0.00848176  0.88144904     0.26700
H910        H  0.39076797  0.57320597  0.96333444     0.21500
H911        H  0.28818065  0.95900281  0.07954919     0.26800
H912        H  0.39139619  0.51765622  0.08549375     0.15700
C913        C  0.02443859  0.64798364  0.50571511    -0.11600
C914        C  0.99917670  0.62390815  0.50225453     0.14900
C915        C  0.47637507  0.62567674  0.49805208     0.01800
C916        C  0.47817452  0.65127069  0.49704305    -0.16000
C917        C  0.50340827  0.67561493  0.49200665    -0.10800
C918        C  0.02631835  0.67362145  0.50642403     0.08500
C919        C  0.99869298  0.59756032  0.50162254     0.09600
S920        S  0.44302541  0.59604081  0.50565590    -0.25100
H921        H  0.45950749  0.65203207  0.50041711     0.19800
S922        S  0.06015850  0.70273179  0.51165043    -0.30800
H923        H  0.04291843  0.64674593  0.50803450     0.10100
C924        C  0.99516356  0.58309078  0.46254957     0.03400
C925        C  0.99481856  0.55817271  0.46362569    -0.13100
C926        C  0.49962248  0.54788079  0.50286564    -0.08800
C927        C  0.49939405  0.56187443  0.54103679     0.06800
C928        C  0.49950707  0.58659923  0.53717042    -0.13900
S929        S  0.99175029  0.59668642  0.41125941    -0.30800
H930        H  0.99207893  0.54695595  0.43370704     0.11100
S931        S  0.49909699  0.54989793  0.59567633    -0.27900
H932        H  0.49939987  0.59738736  0.56633598     0.08300
H933        H  0.05358387  0.71236868  0.54943369     0.26700
H934        H  0.98779187  0.57449672  0.38519074     0.21500
H935        H  0.50117139  0.52680861  0.58571291     0.26800
H936        H  0.44810002  0.57728749  0.48343070     0.15700
C937        C  0.00633063  0.91134192  0.54750972    -0.11600
C938        C  0.49960498  0.89586341  0.49795698     0.14900
C939        C  0.49111167  0.90447665  0.46096693     0.01800
C940        C  0.49118853  0.92920805  0.46236286    -0.16000
C941        C  0.49877908  0.94526293  0.50027669    -0.10800
C942        C  0.00600842  0.93589568  0.54970526     0.08500
C943        C  0.99911245  0.86974059  0.50880338     0.09600
S944        S  0.47975701  0.88482789  0.41121658    -0.25100
H945        H  0.48509171  0.93592390  0.43365830     0.19800
S946        S  0.01462887  0.95360536  0.60137625    -0.30800
H947        H  0.01292227  0.90458381  0.57562674     0.10100
C948        C  0.01916151  0.86777844  0.48440162     0.03400
C949        C  0.01918184  0.84298444  0.48362968    -0.13100
C950        C  0.50219022  0.82115788  0.49719079    -0.08800
C951        C  0.48310897  0.82390297  0.52341661     0.06800
C952        C  0.48263172  0.84838310  0.52290898    -0.13900
S953        S  0.04487873  0.89697043  0.45478904    -0.30800
H954        H  0.03429607  0.84123758  0.46442385     0.11100
S955        S  0.45982994  0.79756090  0.55997012    -0.27900
H956        H  0.46770805  0.85024099  0.54253595     0.08300
H957        H  0.00173717  0.96900257  0.59456148     0.26700
H958        H  0.05897382  0.88428794  0.43827886     0.21500
H959        H  0.47853090  0.78934594  0.57260102     0.26800
H960        H  0.46946546  0.85904246  0.43068115     0.15700
C961        C  0.01845821  0.75027461  0.70878863    -0.11600
C962        C  0.50065787  0.74864247  0.71758077     0.14900
C963        C  0.47998156  0.74923462  0.69268752     0.01800
C964        C  0.48078717  0.74806927  0.64723681    -0.16000
C965        C  0.50227697  0.74723593  0.62568380    -0.10800
C966        C  0.01975769  0.74836237  0.66348422     0.08500
C967        C  0.50070687  0.74931049  0.76576307     0.09600
S968        S  0.45243632  0.75220693  0.71666467    -0.25100
H969        H  0.46489995  0.74870483  0.62851365     0.19800
S970        S  0.04702528  0.74411206  0.64186559    -0.30800
H971        H  0.03393110  0.74975641  0.72887771     0.10100
C972        C  0.48090777  0.72733649  0.79056406     0.03400
C973        C  0.48121679  0.72963078  0.83610719    -0.13100
C974        C  0.50138479  0.75313309  0.85748508    -0.08800
C975        C  0.01530273  0.77684870  0.84461117     0.06800
C976        C  0.01499759  0.77572814  0.79906864    -0.13900
S977        S  0.45600416  0.69598408  0.76439588    -0.30800
H978        H  0.46610621  0.71272994  0.85525308     0.11100
S979        S  0.03913598  0.80888560  0.86992444    -0.27900
H980        H  0.02944661  0.79353712  0.78073343     0.08300
H981        H  0.03049693  0.72439895  0.61075900     0.26700
H982        H  0.44320361  0.68161007  0.80268370     0.21500
H983        H  0.02140439  0.80688700  0.90373346     0.26800
H984        H  0.46679671  0.76690469  0.75387201     0.15700
C985        C  0.48431358  0.72843454  0.19520979    -0.11600
C986        C  0.00152163  0.75077620  0.22870252     0.14900
C987        C  0.02227182  0.77225360  0.20425899     0.01800
C988        C  0.02166172  0.77061252  0.15870718    -0.16000
C989        C  0.50384856  0.74977750  0.12561926    -0.10800
C990        C  0.48400274  0.72722137  0.14969285     0.08500
C991        C  0.00174092  0.75065208  0.27689211     0.09600
S992        S  0.04982632  0.80238968  0.22919073    -0.25100
H993        H  0.03742922  0.78746289  0.14025520     0.19800
S994        S  0.45879263  0.69571135  0.12461330    -0.30800
H995        H  0.46898812  0.71115281  0.21351474     0.10100
C996        C  0.48463212  0.75437157  0.28919385     0.03400
C997        C  0.48450851  0.75323586  0.33486034    -0.13100
C998        C  0.50347091  0.74870754  0.35741543    -0.08800
C999        C  0.02078584  0.74413041  0.34400138     0.06800
C1000       C  0.02062812  0.74567389  0.29850126    -0.13900
S1001       S  0.46052064  0.76099810  0.26102685    -0.30800
H1002       H  0.46993546  0.75638553  0.35313976     0.11100
S1003       S  0.04430445  0.73525682  0.36832985    -0.27900
H1004       H  0.03489800  0.74230865  0.27966606     0.08300
H1005       H  0.47640720  0.69596780  0.09195514     0.26700
H1006       H  0.44709267  0.76286682  0.29834692     0.21500
H1007       H  0.02628036  0.71873368  0.40122972     0.26800
H1008       H  0.03512154  0.80254556  0.26602743     0.15700
C1009       C  0.00460452  0.59314811  0.95087493    -0.11600
C1010       C  0.99836707  0.60177533  0.98986382     0.14900
C1011       C  0.49245349  0.58620990  0.02374009     0.01800
C1012       C  0.49219437  0.56137610  0.02306614    -0.16000
C1013       C  0.50020630  0.55264263  0.98587505    -0.10800
C1014       C  0.00494235  0.56860357  0.94857814     0.08500
C1015       C  0.99920041  0.62827992  0.99063329     0.09600
S1016       S  0.48098178  0.59501464  0.07279263    -0.25100
H1017       H  0.48569407  0.54873364  0.05191817     0.19800
S1018       S  0.01246742  0.55950758  0.89597112    -0.30800
H1019       H  0.00932580  0.60572526  0.92202055     0.10100
C1020       C  0.02050874  0.65128037  0.01154520     0.03400
C1021       C  0.01996320  0.67578670  0.01263795    -0.13100
C1022       C  0.50335700  0.68010676  0.98463919    -0.08800
C1023       C  0.48265041  0.65694856  0.96251965     0.06800
C1024       C  0.48253913  0.63219363  0.96396964    -0.13900
S1025       S  0.04848250  0.64945277  0.03645919    -0.30800
H1026       H  0.03596159  0.69330146  0.02961098     0.11100
S1027       S  0.45655136  0.65783121  0.93007783    -0.27900
H1028       H  0.46642348  0.61443292  0.94751789     0.08300
H1029       H  0.00693141  0.53300413  0.90573211     0.26700
H1030       H  0.06378222  0.67709543  0.04878636     0.21500
H1031       H  0.47408166  0.68393009  0.91278445     0.26800
H1032       H  0.47063372  0.61017462  0.05243346     0.15700
C1033       C  0.50805233  0.91565220  0.95220160    -0.11600
C1034       C  0.49927123  0.90009395  0.99048455     0.14900
C1035       C  0.99280920  0.91024740  0.03819396     0.01800
C1036       C  0.99435376  0.93560115  0.03476236    -0.16000
C1037       C  0.50217031  0.95138547  0.98583465    -0.10800
C1038       C  0.50941609  0.94104282  0.94921606     0.08500
C1039       C  0.49905254  0.87381475  0.99220220     0.09600
S1040       S  0.98168375  0.89249970  0.08947594    -0.25100
H1041       H  0.98946522  0.94387645  0.06297956     0.19800
S1042       S  0.52037704  0.95849386  0.89756081    -0.30800
H1043       H  0.51383622  0.90785693  0.92432980     0.10100
C1044       C  0.47838820  0.85012669  0.97172752     0.03400
C1045       C  0.47925509  0.82575677  0.97377657    -0.13100
C1046       C  0.50023447  0.82448561  0.99636063    -0.08800
C1047       C  0.01897389  0.84660666  0.03078760     0.06800
C1048       C  0.01880210  0.87120321  0.02798904    -0.13900
S1049       S  0.45067856  0.85086933  0.94373869    -0.30800
H1050       H  0.46378523  0.80774020  0.95707380     0.11100
S1051       S  0.04455656  0.84609288  0.06514191    -0.27900
H1052       H  0.03419807  0.88903986  0.04523399     0.08300
H1053       H  0.51449610  0.97943605  0.90536684     0.26700
H1054       H  0.43512277  0.82264109  0.93542625     0.21500
H1055       H  0.02715866  0.81974988  0.08171738     0.26800
H1056       H  0.96844335  0.86599213  0.07173972     0.15700
O1057       O  0.52245633  0.26515740  0.93937684    -0.73200
O1058       O  0.52370166  0.26118703  0.06982034    -0.74200
O1059       O  0.52323288  0.22774827  0.99996950    -0.62800
O1060       O  0.52285094  0.29848158  0.00876667    -0.71200
O1061       O  0.97820187  0.27539854  0.00278187    -0.70700
O1062       O  0.97876824  0.20461181  0.99501141    -0.62000
O1063       O  0.97941241  0.23828594  0.06421545    -0.74500
O1064       O  0.97735666  0.24131278  0.93394327    -0.73300
Cu1065     Cu  0.52464890  0.26393741  0.00452486     1.04600
Cu1066     Cu  0.97686950  0.23912786  0.99912511     1.04300
C1067       C  0.49964360  0.25440053  0.91920521     0.93000
C1068       C  0.50122198  0.24902796  0.09089082     0.92200
C1069       C  0.50059543  0.20517073  0.99834493     0.84300
C1070       C  0.50010383  0.29813859  0.00995739     0.90600
O1071       O  0.97893969  0.27250832  0.49812744    -0.73200
O1072       O  0.97951988  0.20173295  0.49860594    -0.74200
O1073       O  0.97843326  0.23703864  0.56315405    -0.62800
O1074       O  0.97937190  0.23696033  0.43268220    -0.71200
O1075       O  0.52375151  0.25977200  0.44050257    -0.70700
O1076       O  0.52322607  0.25987183  0.57106411    -0.62000
O1077       O  0.52485357  0.22496412  0.50579358    -0.74500
O1078       O  0.52200164  0.29445163  0.50600020    -0.73300
Cu1079     Cu  0.97749705  0.23627976  0.49798118     1.04600
Cu1080     Cu  0.52502621  0.26059057  0.50578210     1.04300
C1081       C  0.00155307  0.29511137  0.49944960     0.93000
C1082       C  0.00224152  0.20194336  0.49961706     0.92200
C1083       C  0.00085216  0.24832331  0.58440173     0.84300
C1084       C  0.00210277  0.24789826  0.41231826     0.90600
C1085       C  0.97604844  0.47661667  0.98901752     0.02000
C1086       C  0.00133732  0.47710778  0.98921078     0.02000
C1087       C  0.52632364  0.00294837  0.98907585     0.02000
C1088       C  0.52547811  0.02757663  0.98971852     0.02000
C1089       C  0.99976359  0.02559094  0.99096260     0.02000
C1090       C  0.97532809  0.50124609  0.98881073     0.02000
C1091       C  0.52369664  0.02153538  0.49944607     0.02000
C1092       C  0.52382254  0.49591437  0.50406599     0.02000
C1093       C  0.99957998  0.47207191  0.50173427     0.02000
C1094       C  0.97430919  0.47148591  0.50264703     0.02000
C1095       C  0.97379584  0.49619916  0.50337574     0.02000
C1096       C  0.99842482  0.02148624  0.50993017     0.02000
O1097       O  0.79885288  0.02603254  0.00568163    -0.73200
O1098       O  0.72881774  0.02803758  0.00093519    -0.74200
O1099       O  0.76265020  0.02689476  0.06859181    -0.62800
O1100       O  0.76500519  0.02695104  0.93763607    -0.71200
O1101       O  0.73884001  0.47610840  0.94716799    -0.70700
O1102       O  0.73833271  0.48063215  0.07772362    -0.62000
O1103       O  0.70327991  0.47868796  0.00989582    -0.74500
O1104       O  0.77416196  0.47823714  0.01506694    -0.73300
Cu1105     Cu  0.76466944  0.02858708  0.00320195     1.04600
Cu1106     Cu  0.73784557  0.47683909  0.01263030     1.04300
C1107       C  0.79817437  0.00309229  0.00651799     0.93000
C1108       C  0.70598224  0.00564998  0.99972070     0.92200
C1109       C  0.75050334  0.00418637  0.08900929     0.84300
C1110       C  0.75346406  0.00423026  0.91699918     0.90600
O1111       O  0.79750315  0.02372645  0.50411184    -0.73200
O1112       O  0.72682731  0.02388893  0.50212229    -0.74200
O1113       O  0.76160001  0.02360804  0.56851560    -0.62800
O1114       O  0.76288705  0.02401156  0.43773068    -0.71200
O1115       O  0.74107310  0.48211491  0.44370777    -0.70700
O1116       O  0.74124367  0.47829711  0.57427712    -0.62000
O1117       O  0.70554142  0.47968177  0.51011678    -0.74500
O1118       O  0.77670696  0.48063022  0.50725744    -0.73300
Cu1119     Cu  0.76298518  0.02537736  0.50320232     1.04600
Cu1120     Cu  0.74039616  0.47863814  0.50879623     1.04300
C1121       C  0.79929859  0.50321128  0.50935088     0.93000
C1122       C  0.70528868  0.50214078  0.51003361     0.92200
C1123       C  0.75216805  0.50033676  0.59667170     0.84300
C1124       C  0.75246781  0.50531732  0.42473385     0.90600
O1125       O  0.76042942  0.24020545  0.93762230    -0.73200
O1126       O  0.76214606  0.24173271  0.06785482    -0.74200
O1127       O  0.72520168  0.20601323  0.00432448    -0.62800
O1128       O  0.79708342  0.27597015  0.00138285    -0.71200
O1129       O  0.77551348  0.29957913  0.00069909    -0.70700
O1130       O  0.70361635  0.22966046  0.00480954    -0.62000
O1131       O  0.74099629  0.26582720  0.06835964    -0.74500
O1132       O  0.73856538  0.26356932  0.93738664    -0.73300
Cu1133     Cu  0.76195111  0.24016566  0.00278414     1.04600
Cu1134     Cu  0.73888958  0.26547379  0.00284806     1.04300
C1135       C  0.74916107  0.25147190  0.91681256     0.93000
C1136       C  0.75213872  0.25423555  0.08872882     0.92200
C1137       C  0.70301192  0.20676771  0.00541877     0.84300
C1138       C  0.79771791  0.29885212  0.00001992     0.90600
O1139       O  0.75812041  0.23589361  0.56855259    -0.73200
O1140       O  0.75916267  0.23633700  0.43746523    -0.74200
O1141       O  0.79475597  0.27056333  0.50394118    -0.62800
O1142       O  0.72268828  0.20127891  0.50199484    -0.71200
O1143       O  0.70117587  0.22481174  0.50204806    -0.70700
O1144       O  0.77366151  0.29467040  0.50385249    -0.62000
O1145       O  0.73794692  0.26029573  0.43789617    -0.74500
O1146       O  0.73672024  0.25972229  0.56791279    -0.73300
Cu1147     Cu  0.75941188  0.23517288  0.50303492     1.04600
Cu1148     Cu  0.73663032  0.26069032  0.50292002     1.04300
C1149       C  0.74719023  0.24776305  0.58888766     0.93000
C1150       C  0.74846540  0.24832182  0.41694272     0.92200
C1151       C  0.79570447  0.29358613  0.50378674     0.84300
C1152       C  0.70039626  0.20184164  0.50151983     0.90600
C1153       C  0.74910267  0.23074623  0.79876977    -0.11600
C1154       C  0.75176339  0.25361877  0.77672346     0.14900
C1155       C  0.75297751  0.27548361  0.80082077     0.01800
C1156       C  0.75130961  0.27388475  0.84633253    -0.16000
C1157       C  0.74892147  0.25108797  0.86858896    -0.10800
C1158       C  0.74745673  0.22911130  0.84419685     0.08500
C1159       C  0.75125430  0.25300967  0.72856103     0.09600
S1160       S  0.75710885  0.30609490  0.77552940    -0.25100
H1161       H  0.75263672  0.29094322  0.86455705     0.19800
S1162       S  0.74198225  0.19778366  0.86856479    -0.30800
H1163       H  0.74756261  0.21367545  0.78026211     0.10100
C1164       C  0.77276794  0.25379911  0.70425764     0.03400
C1165       C  0.77060584  0.25140769  0.65876398    -0.13100
C1166       C  0.74740822  0.24837944  0.63701838    -0.08800
C1167       C  0.72577281  0.24739478  0.66166868     0.06800
C1168       C  0.72807879  0.24999482  0.70701068    -0.13900
S1169       S  0.80331855  0.25870360  0.73109052    -0.30800
H1170       H  0.78729540  0.25246175  0.63994385     0.11100
S1171       S  0.69415074  0.24145941  0.63771020    -0.27900
H1172       H  0.71134540  0.24890256  0.72582956     0.08300
H1173       H  0.72313241  0.19655507  0.89972613     0.26700
H1174       H  0.81758962  0.25931670  0.69315738     0.21500
H1175       H  0.69286026  0.22260843  0.60642135     0.26800
H1176       H  0.77187001  0.30539230  0.73915505     0.15700
C1177       C  0.75751857  0.27620261  0.20729105    -0.11600
C1178       C  0.75233347  0.25217540  0.22867835     0.14900
C1179       C  0.74716083  0.22901810  0.20381962     0.01800
C1180       C  0.74804663  0.23064730  0.15836643    -0.16000
C1181       C  0.75305418  0.25459454  0.13682447    -0.10800
C1182       C  0.75821199  0.27777147  0.16174045     0.08500
C1183       C  0.75212116  0.25180834  0.27686559     0.09600
S1184       S  0.73866486  0.19661353  0.22789984    -0.25100
H1185       H  0.74392295  0.21271153  0.13959616     0.19800
S1186       S  0.76712189  0.31023750  0.13761228    -0.30800
H1187       H  0.76158103  0.29403602  0.22630417     0.10100
C1188       C  0.77235049  0.25008723  0.30111376     0.03400
C1189       C  0.77039939  0.24849121  0.34671191    -0.13100
C1190       C  0.74870556  0.24875347  0.36865974    -0.08800
C1191       C  0.72844521  0.25044052  0.34394247     0.06800
C1192       C  0.73064819  0.25236918  0.29857543    -0.13900
S1193       S  0.80113443  0.25088892  0.27414933    -0.30800
H1194       H  0.78619168  0.24766241  0.36540538     0.11100
S1195       S  0.69850140  0.24878221  0.36772128    -0.27900
H1196       H  0.71496126  0.25341660  0.27982553     0.08300
H1197       H  0.78293204  0.30836795  0.10380146     0.26700
H1198       H  0.81186061  0.24493180  0.31115674     0.21500
H1199       H  0.69382702  0.22781006  0.39712618     0.26800
H1200       H  0.72586270  0.19932386  0.26530581     0.15700
C1201       C  0.75460501  0.47846435  0.71318471    -0.11600
C1202       C  0.74908466  0.00107054  0.72883368     0.14900
C1203       C  0.74498783  0.01991096  0.70468301     0.01800
C1204       C  0.74624898  0.01973440  0.65916860    -0.16000
C1205       C  0.75233622  0.49910340  0.64488130    -0.10800
C1206       C  0.75630968  0.47960505  0.66760874     0.08500
C1207       C  0.74996581  0.00163375  0.77696522     0.09600
S1208       S  0.73796166  0.04455304  0.72999540    -0.25100
H1209       H  0.74280464  0.03409721  0.64087559     0.19800
S1210       S  0.76532828  0.45682392  0.64076489    -0.30800
H1211       H  0.75785513  0.46364780  0.73044924     0.10100
C1212       C  0.72654357  0.47792194  0.80895621     0.03400
C1213       C  0.72761593  0.47843463  0.85469976    -0.13100
C1214       C  0.75340376  0.00366760  0.86874539    -0.08800
C1215       C  0.77511154  0.02364110  0.84336144     0.06800
C1216       C  0.77292878  0.02263660  0.79789893    -0.13900
S1217       S  0.69502804  0.45516875  0.78116395    -0.30800
H1218       H  0.70946245  0.46515318  0.87326565     0.11100
S1219       S  0.80671771  0.04994126  0.86655267    -0.27900
H1220       H  0.78956206  0.03798871  0.77854783     0.08300
H1221       H  0.78225288  0.47595750  0.60937267     0.26700
H1222       H  0.67918624  0.44351299  0.81876331     0.21500
H1223       H  0.80816823  0.03294166  0.89859740     0.26800
H1224       H  0.72427531  0.02859121  0.76655479     0.15700
C1225       C  0.72846076  0.49073166  0.30730731    -0.11600
C1226       C  0.75227389  0.00115642  0.27713761     0.14900
C1227       C  0.77617533  0.01820223  0.30112568     0.01800
C1228       C  0.77500271  0.01838565  0.34668037    -0.16000
C1229       C  0.75177173  0.50655330  0.37680108    -0.10800
C1230       C  0.72757441  0.49026000  0.35281690     0.08500
C1231       C  0.75174781  0.00165266  0.22903193     0.09600
S1232       S  0.80873945  0.03992013  0.27554522    -0.25100
H1233       H  0.79345970  0.03137729  0.36495754     0.19800
S1234       S  0.69477182  0.46897425  0.37802761    -0.30800
H1235       H  0.70987903  0.47816791  0.28902603     0.10100
C1236       C  0.75093727  0.48427149  0.21391007     0.03400
C1237       C  0.74960919  0.48384543  0.16831384    -0.13100
C1238       C  0.74999990  0.00364904  0.13728956    -0.08800
C1239       C  0.75105746  0.02504194  0.16285791     0.06800
C1240       C  0.75241117  0.02400735  0.20827514    -0.13900
S1241       S  0.75149687  0.45674527  0.24277001    -0.30800
H1242       H  0.74918531  0.46703224  0.15069131     0.11100
S1243       S  0.74922505  0.05341867  0.14002763    -0.27900
H1244       H  0.75331269  0.04045982  0.22775066     0.08300
H1245       H  0.69941692  0.48591571  0.41432476     0.26700
H1246       H  0.74924790  0.44088352  0.20595072     0.21500
H1247       H  0.72921773  0.03750283  0.10887556     0.26800
H1248       H  0.80417466  0.02333234  0.23872163     0.15700
C1249       C  0.62420126  0.14801977  0.50312043    -0.11600
C1250       C  0.62542581  0.12391876  0.50209825     0.14900
C1251       C  0.65099169  0.12537790  0.50007620     0.01800
C1252       C  0.67477082  0.15097701  0.49938931    -0.16000
C1253       C  0.67390462  0.17548028  0.50063518    -0.10800
C1254       C  0.64794060  0.17367119  0.50185408     0.08500
C1255       C  0.59956185  0.09765654  0.50166899     0.09600
S1256       S  0.65488157  0.09555497  0.49730214    -0.25100
H1257       H  0.69420353  0.15158757  0.49801717     0.19800
S1258       S  0.64319049  0.20285401  0.50122409    -0.30800
H1259       H  0.60445040  0.14678808  0.50416685     0.10100
C1260       C  0.58701766  0.08418139  0.54065692     0.03400
C1261       C  0.56227331  0.05949511  0.53877236    -0.13100
C1262       C  0.54984064  0.04794695  0.49872913    -0.08800
C1263       C  0.56252695  0.06154168  0.45956985     0.06800
C1264       C  0.58729222  0.08623233  0.46157742    -0.13900
S1265       S  0.60290159  0.09810773  0.59264971    -0.30800
H1266       H  0.55271389  0.04886102  0.56861268     0.11100
S1267       S  0.54875495  0.04883692  0.40601135    -0.27900
H1268       H  0.59709736  0.09673254  0.43163087     0.08300
H1269       H  0.65767626  0.21295202  0.46197061     0.26700
H1270       H  0.58356234  0.07650091  0.61842061     0.21500
H1271       H  0.52236895  0.02874571  0.41819003     0.26800
H1272       H  0.62967974  0.07650727  0.51550349     0.15700
C1273       C  0.90743281  0.40910249  0.46823347    -0.11600
C1274       C  0.89922591  0.39442479  0.50737527     0.14900
C1275       C  0.91624841  0.40463336  0.54436477     0.01800
C1276       C  0.94036046  0.42986392  0.54193011    -0.16000
C1277       C  0.94836674  0.44484196  0.50300183    -0.10800
C1278       C  0.93198198  0.43392225  0.46534387     0.08500
C1279       C  0.87283400  0.36853574  0.50813211     0.09600
S1280       S  0.90852708  0.38643048  0.59533872    -0.25100
H1281       H  0.95318003  0.43777819  0.57056526     0.19800
S1282       S  0.94114134  0.44988297  0.41234353    -0.30800
H1283       H  0.89462656  0.40100458  0.43956208     0.10100
C1284       C  0.84972661  0.36649515  0.52909302     0.03400
C1285       C  0.82476983  0.34187303  0.52681128    -0.13100
C1286       C  0.82244540  0.31918563  0.50409394    -0.08800
C1287       C  0.84576946  0.32147667  0.48294421     0.06800
C1288       C  0.87063776  0.34599626  0.48548808    -0.13900
S1289       S  0.85186410  0.39538777  0.55793382    -0.30800
H1290       H  0.80701077  0.34021549  0.54304970     0.11100
S1291       S  0.84501576  0.29456330  0.45026515    -0.27900
H1292       H  0.88837435  0.34774405  0.46892924     0.08300
H1293       H  0.96880336  0.46845741  0.42043270     0.26700
H1294       H  0.82506516  0.38188942  0.57440562     0.21500
H1295       H  0.81978285  0.28710932  0.43049841     0.26800
H1296       H  0.89389167  0.36005593  0.57733469     0.15700
C1297       C  0.65005335  0.02102039  0.47901388    -0.11600
C1298       C  0.62723471  0.49802966  0.50601039     0.14900
C1299       C  0.63044868  0.47789809  0.52787107     0.01800
C1300       C  0.65613043  0.47993986  0.52884571    -0.16000
C1301       C  0.67874469  0.50134459  0.50764615    -0.10800
C1302       C  0.67528911  0.02208140  0.47874044     0.08500
C1303       C  0.60092934  0.49768180  0.50572284     0.09600
S1304       S  0.60270055  0.44927686  0.55545256    -0.25100
H1305       H  0.65846783  0.46464191  0.54645619     0.19800
S1306       S  0.70269391  0.04996130  0.44952806    -0.30800
H1307       H  0.64812227  0.03711961  0.46327886     0.10100
C1308       C  0.59176103  0.00677228  0.53524231     0.03400
C1309       C  0.56619387  0.00490415  0.53416398    -0.13100
C1310       C  0.55019864  0.49590773  0.50330394    -0.08800
C1311       C  0.55943728  0.48765484  0.46643455     0.06800
C1312       C  0.58464765  0.48865518  0.46822969    -0.13900
S1313       S  0.61251782  0.01905500  0.58375098    -0.30800
H1314       H  0.55851355  0.00968190  0.56316222     0.11100
S1315       S  0.54088332  0.47595426  0.41570866    -0.27900
H1316       H  0.59167232  0.48224655  0.44010933     0.08300
H1317       H  0.71156446  0.03349525  0.42899813     0.26700
H1318       H  0.59660760  0.02824394  0.60521941     0.21500
H1319       H  0.52009391  0.48185099  0.42424851     0.26800
H1320       H  0.58157965  0.44734401  0.52888484     0.15700
C1321       C  0.87345092  0.02295464  0.49960904    -0.11600
C1322       C  0.87293804  0.49816592  0.50795229     0.14900
C1323       C  0.84759723  0.47556352  0.49610925     0.01800
C1324       C  0.82426912  0.47810027  0.49643761    -0.16000
C1325       C  0.82539382  0.50273341  0.50835872    -0.10800
C1326       C  0.84985416  0.02502038  0.49891674     0.08500
C1327       C  0.89848786  0.49724757  0.50630663     0.09600
S1328       S  0.84356546  0.44307723  0.47942784    -0.25100
H1329       H  0.80499035  0.46047176  0.48715390     0.19800
S1330       S  0.85496973  0.05901031  0.49416507    -0.30800
H1331       H  0.89321409  0.04134172  0.49865472     0.10100
C1332       C  0.91265461  0.50113639  0.46685527     0.03400
C1333       C  0.93704061  0.50048754  0.46677253    -0.13100
C1334       C  0.94739046  0.49582780  0.50527170    -0.08800
C1335       C  0.92997071  0.98987859  0.54563889     0.06800
C1336       C  0.90532869  0.98999072  0.54208119    -0.13900
S1337       S  0.89982972  0.50727335  0.41681847    -0.30800
H1338       H  0.94826435  0.50378460  0.43669154     0.11100
S1339       S  0.93967106  0.98207547  0.59730108    -0.27900
H1340       H  0.89202748  0.98506687  0.57008904     0.08300
H1341       H  0.83840721  0.05253456  0.45680440     0.26700
H1342       H  0.92049977  0.50878960  0.38944802     0.21500
H1343       H  0.91474724  0.97372754  0.61876730     0.26800
H1344       H  0.86704818  0.44572763  0.49952920     0.15700
C1345       C  0.64759995  0.13307696  0.02528838    -0.11600
C1346       C  0.62584685  0.13172168  0.00138088     0.14900
C1347       C  0.62901347  0.15562116  0.98133626     0.01800
C1348       C  0.65428535  0.17980385  0.98357472    -0.16000
C1349       C  0.67637593  0.18102589  0.00646572    -0.10800
C1350       C  0.67256391  0.15747878  0.02873033     0.08500
C1351       C  0.60027647  0.10504980  0.99800126     0.09600
S1352       S  0.60181205  0.15674498  0.95235400    -0.25100
H1353       H  0.65677372  0.19779477  0.96690585     0.19800
S1354       S  0.69815787  0.15746925  0.06367853    -0.30800
H1355       H  0.64502189  0.11495444  0.04165500     0.10100
C1356       C  0.59188778  0.09059573  0.95832778     0.03400
C1357       C  0.56728187  0.06568453  0.95666259    -0.13100
C1358       C  0.55125425  0.05432807  0.99406061    -0.08800
C1359       C  0.56020505  0.06848953  0.03422314     0.06800
C1360       C  0.58449015  0.09370614  0.03554391    -0.13900
S1361       S  0.61290961  0.10335544  0.91014927    -0.30800
H1362       H  0.56053195  0.05481937  0.92605250     0.11100
S1363       S  0.54249211  0.05586908  0.08539053    -0.27900
H1364       H  0.59121701  0.10465088  0.06621258     0.08300
H1365       H  0.70726033  0.18381229  0.08053448     0.26700
H1366       H  0.59696777  0.08057182  0.88340392     0.21500
H1367       H  0.51934116  0.03222666  0.07049470     0.26800
H1368       H  0.57992723  0.13454218  0.97341837     0.15700
C1369       C  0.87289347  0.35106032  0.98309106    -0.11600
C1370       C  0.87411474  0.37480794  0.99942055     0.14900
C1371       C  0.84992865  0.37376835  0.01397430     0.01800
C1372       C  0.82550721  0.34871010  0.01438991    -0.16000
C1373       C  0.82420786  0.32477210  0.99827954    -0.09000
C1374       C  0.84821250  0.32636112  0.98113077     0.08500
C1375       C  0.90060154  0.40056335  0.99792683     0.09600
S1376       S  0.84857117  0.40367433  0.03096370    -0.25100
H1377       H  0.80726675  0.34804040  0.02687193     0.19800
S1378       S  0.84862139  0.29841428  0.95347552    -0.30800
H1379       H  0.89124359  0.35201000  0.97045126     0.10100
C1380       C  0.91401760  0.41513400  0.03597862     0.03400
C1381       C  0.93834690  0.44015226  0.03209826    -0.13100
C1382       C  0.95009438  0.45017307  0.99115328    -0.08800
C1383       C  0.93740166  0.43490316  0.95335473     0.06800
C1384       C  0.91258872  0.41043207  0.95708930    -0.13900
S1385       S  0.90090212  0.40139935  0.08934631    -0.30800
H1386       H  0.94863215  0.45180602  0.06098892     0.11100
S1387       S  0.95257458  0.44640284  0.90034956    -0.27900
H1388       H  0.90228625  0.39891051  0.92808403     0.08300
H1389       H  0.82432460  0.29047568  0.93020778     0.26700
H1390       H  0.92106543  0.42348252  0.11347761     0.21500
H1391       H  0.93402073  0.42290868  0.87704536     0.26800
H1392       H  0.86965379  0.42234500  0.00372781     0.15700
C1393       C  0.58784188  0.50063529  0.03725052    -0.11600
C1394       C  0.60491790  0.00804162  0.99505973     0.14900
C1395       C  0.59523798  0.01322446  0.95597479     0.01800
C1396       C  0.56940209  0.01069653  0.95500930    -0.16000
C1397       C  0.55308544  0.00394826  0.99250532    -0.10800
C1398       C  0.56251059  0.49944507  0.03644087     0.08500
C1399       C  0.63098257  0.00786039  0.99675042     0.09600
S1400       S  0.61495263  0.02338661  0.90634757    -0.25100
H1401       H  0.56209325  0.01441684  0.92465734     0.19800
S1402       S  0.54578510  0.49538001  0.08830830    -0.30800
H1403       H  0.59594907  0.49850758  0.06807350     0.10100
C1404       C  0.65413731  0.02846873  0.01843858     0.03400
C1405       C  0.67845372  0.02745575  0.01854633    -0.13100
C1406       C  0.68011892  0.00628016  0.99721862    -0.08800
C1407       C  0.65354266  0.48006443  0.98458435     0.06800
C1408       C  0.62941156  0.48119991  0.98445701    -0.13900
S1409       S  0.65287537  0.05639200  0.04490304    -0.30800
H1410       H  0.69616816  0.04306840  0.03566901     0.11100
S1411       S  0.65254382  0.45116534  0.95785836    -0.27900
H1412       H  0.61111333  0.46453698  0.97008215     0.08300
H1413       H  0.52103244  0.49238106  0.07363959     0.26700
H1414       H  0.68000438  0.07008093  0.05998872     0.21500
H1415       H  0.67779147  0.46678731  0.93667023     0.26800
H1416       H  0.64068265  0.03732668  0.92660509     0.15700
C1417       C  0.90961275  0.50218462  0.96464809    -0.11600
C1418       C  0.89978888  0.00150272  0.00363018     0.14900
C1419       C  0.91247749  0.99780700  0.04055755     0.01800
C1420       C  0.93638812  0.99656025  0.03532116    -0.16000
C1421       C  0.94874027  0.50062047  0.99377195    -0.10800
C1422       C  0.93395801  0.50185875  0.95773693     0.08500
C1423       C  0.87421629  0.00259997  0.00662299     0.09600
S1424       S  0.89973943  0.99541938  0.09520665    -0.25100
H1425       H  0.94625910  0.99406254  0.06376677     0.19800
S1426       S  0.94596779  0.50321787  0.90292456    -0.30800
H1427       H  0.89808360  0.50293754  0.93706010     0.10100
C1428       C  0.87345959  0.02629612  0.99491043     0.03400
C1429       C  0.84848621  0.02592830  0.99565270    -0.13100
C1430       C  0.82417678  0.00252765  0.00876381    -0.08800
C1431       C  0.82588175  0.47884503  0.03237549     0.06800
C1432       C  0.85095332  0.47959191  0.02887988    -0.13900
S1433       S  0.90443260  0.05723133  0.97994063    -0.30800
H1434       H  0.84790645  0.04394600  0.98550690     0.11100
S1435       S  0.79846923  0.44941122  0.05871151    -0.27900
H1436       H  0.85254224  0.46227312  0.03992513     0.08300
H1437       H  0.92354871  0.50221066  0.88138558     0.26700
H1438       H  0.89241490  0.07341532  0.97244810     0.21500
H1439       H  0.78991928  0.46473215  0.08355561     0.26800
H1440       H  0.88898118  0.01277148  0.08841472     0.15700
C1441       C  0.52593332  0.14881055  0.51069738    -0.11600
C1442       C  0.50088110  0.12456662  0.50639041     0.14900
C1443       C  0.97530435  0.12552904  0.49947745     0.01800
C1444       C  0.97706579  0.15107499  0.49765120    -0.16000
C1445       C  0.00226369  0.17557244  0.50148994    -0.10800
C1446       C  0.52742574  0.17427868  0.51158219     0.08500
C1447       C  0.50074428  0.09841381  0.50520863     0.09600
S1448       S  0.94188066  0.09566636  0.49401892    -0.25100
H1449       H  0.95836783  0.15166643  0.49326232     0.19800
S1450       S  0.56094671  0.20363854  0.51862895    -0.30800
H1451       H  0.54453470  0.14783790  0.51357339     0.10100
C1452       C  0.49764763  0.08440783  0.46577711     0.03400
C1453       C  0.49706218  0.05938054  0.46635454    -0.13100
C1454       C  0.99858798  0.04787768  0.50983213    -0.08800
C1455       C  0.99949086  0.06185141  0.54866034     0.06800
C1456       C  0.99978803  0.08670984  0.54602473    -0.13900
S1457       S  0.49472107  0.09853768  0.41471946    -0.30800
H1458       H  0.49496248  0.04866544  0.43608667     0.11100
S1459       S  0.00020276  0.04953149  0.60265439    -0.27900
H1460       H  0.00052937  0.09748386  0.57571626     0.08300
H1461       H  0.55318932  0.21332683  0.55500455     0.26700
H1462       H  0.48826495  0.07546995  0.38893790     0.21500
H1463       H  0.00143618  0.02612845  0.59152359     0.26800
H1464       H  0.94727692  0.07743753  0.51700191     0.15700
C1465       C  0.50516402  0.41088145  0.54623961    -0.11600
C1466       C  0.00093314  0.39681303  0.50202517     0.14900
C1467       C  0.99302092  0.40543677  0.46443617     0.01800
C1468       C  0.99297467  0.43007342  0.46534810    -0.16000
C1469       C  0.00001804  0.44608362  0.50324424    -0.10800
C1470       C  0.50562692  0.43584596  0.54668966     0.08500
C1471       C  0.49742863  0.36852645  0.50965945     0.09600
S1472       S  0.98269952  0.38600819  0.41439774    -0.25100
H1473       H  0.98715008  0.43672186  0.43628210     0.19800
S1474       S  0.51530017  0.45495159  0.59707979    -0.30800
H1475       H  0.51179667  0.40456328  0.57484202     0.10100
C1476       C  0.51794766  0.36669710  0.48653415     0.03400
C1477       C  0.51808976  0.34200021  0.48642721    -0.13100
C1478       C  0.00166090  0.32128927  0.50209082    -0.08800
C1479       C  0.98178277  0.32405452  0.52605115     0.06800
C1480       C  0.98201132  0.34886946  0.52543924    -0.13900
S1481       S  0.54407805  0.39594166  0.45756175    -0.30800
H1482       H  0.53369031  0.34043699  0.46833160     0.11100
S1483       S  0.95652901  0.29732548  0.55994777    -0.27900
H1484       H  0.96647367  0.35076686  0.54319953     0.08300
H1485       H  0.50234127  0.47021649  0.58952092     0.26700
H1486       H  0.55654591  0.38246397  0.43791355     0.21500
H1487       H  0.97443242  0.28882985  0.57567601     0.26800
H1488       H  0.97216921  0.36010914  0.43352973     0.15700
C1489       C  0.51973993  0.25107076  0.71100919    -0.11600
C1490       C  0.99762726  0.25017187  0.72436349     0.14900
C1491       C  0.97782232  0.25181716  0.69864170     0.01800
C1492       C  0.97901714  0.25042791  0.65323332    -0.16000
C1493       C  0.00005399  0.24827670  0.63260406    -0.10800
C1494       C  0.52054072  0.24869754  0.66574518     0.08500
C1495       C  0.99726234  0.25084588  0.77251802     0.09600
S1496       S  0.95091054  0.25628883  0.72149948    -0.25100
H1497       H  0.96379186  0.25181723  0.63382607     0.19800
S1498       S  0.54708088  0.24343772  0.64370596    -0.30800
H1499       H  0.53508311  0.25015036  0.73086823     0.10100
C1500       C  0.97719411  0.22891972  0.79706744     0.03400
C1501       C  0.97803737  0.23062221  0.84270227    -0.13100
C1502       C  0.99883013  0.25357399  0.86434653    -0.08800
C1503       C  0.51885140  0.27807012  0.84695436     0.06800
C1504       C  0.51834411  0.27689529  0.80142179    -0.13900
S1505       S  0.95128018  0.19831244  0.77044174    -0.30800
H1506       H  0.96287916  0.21364694  0.86166882     0.11100
S1507       S  0.54459035  0.30932150  0.87197421    -0.27900
H1508       H  0.53361247  0.29416206  0.78300191     0.08300
H1509       H  0.52981237  0.22360505  0.61334409     0.26700
H1510       H  0.93863178  0.18359803  0.80855607     0.21500
H1511       H  0.52736255  0.30932085  0.90508731     0.26800
H1512       H  0.96514874  0.27042422  0.75915161     0.15700
C1513       C  0.98345813  0.22565294  0.20148036    -0.11600
C1514       C  0.50194914  0.25028935  0.23115161     0.14900
C1515       C  0.52294381  0.27185224  0.20711289     0.01800
C1516       C  0.52264763  0.27045858  0.16154726    -0.16000
C1517       C  0.00289333  0.24775657  0.13224315    -0.10800
C1518       C  0.98345100  0.22471580  0.15592414     0.08500
C1519       C  0.50169470  0.24998879  0.27941478     0.09600
S1520       S  0.55039387  0.30186456  0.23250595    -0.25100
H1521       H  0.53850650  0.28743326  0.14344401     0.19800
S1522       S  0.95908625  0.19303396  0.13023257    -0.30800
H1523       H  0.96846953  0.20800142  0.21948340     0.10100
C1524       C  0.98294382  0.25196628  0.29572503     0.03400
C1525       C  0.98311660  0.25143665  0.34142679    -0.13100
C1526       C  0.00212653  0.24705961  0.36417575    -0.08800
C1527       C  0.52178650  0.24563094  0.34702012     0.06800
C1528       C  0.52181196  0.24719450  0.30153717    -0.13900
S1529       S  0.95859168  0.25812607  0.26732069    -0.30800
H1530       H  0.96872165  0.25492877  0.35957233     0.11100
S1531       S  0.54738315  0.23990940  0.37176986    -0.27900
H1532       H  0.53730090  0.24559929  0.28308954     0.08300
H1533       H  0.97693720  0.19442752  0.09706212     0.26700
H1534       H  0.94473319  0.25944353  0.30449872     0.21500
H1535       H  0.52979296  0.22164161  0.40353745     0.26800
H1536       H  0.53536954  0.30200193  0.26891551     0.15700
C1537       C  0.50635727  0.09439179  0.95257876    -0.11600
C1538       C  0.49915013  0.10240626  0.99125215     0.14900
C1539       C  0.99085987  0.08490945  0.02581622     0.01800
C1540       C  0.99082176  0.06018596  0.02530199    -0.16000
C1541       C  0.99937027  0.05172045  0.98844135    -0.10800
C1542       C  0.50631364  0.06967878  0.94979061     0.08500
C1543       C  0.50028496  0.12907086  0.99235486     0.09600
S1544       S  0.97902114  0.09352359  0.07465308    -0.25100
H1545       H  0.98415358  0.04744652  0.05407086     0.19800
S1546       S  0.51523828  0.06149634  0.89755391    -0.30800
H1547       H  0.51213410  0.10759146  0.92431956     0.10100
C1548       C  0.52149338  0.15181474  0.01394552     0.03400
C1549       C  0.52140506  0.17657630  0.01472725    -0.13100
C1550       C  0.00167877  0.17881502  0.98877570    -0.08800
C1551       C  0.98105136  0.15583455  0.96620976     0.06800
C1552       C  0.98111493  0.13113497  0.96672164    -0.13900
S1553       S  0.54865776  0.14929379  0.04039947    -0.30800
H1554       H  0.53725081  0.19385845  0.03236314     0.11100
S1555       S  0.95478649  0.15688358  0.93450776    -0.27900
H1556       H  0.96501404  0.11347927  0.95004429     0.08300
H1557       H  0.50826667  0.03439589  0.90593097     0.26700
H1558       H  0.56498157  0.17720292  0.05053339     0.21500
H1559       H  0.97210289  0.18322923  0.91787599     0.26800
H1560       H  0.96892462  0.10888187  0.05423143     0.15700
C1561       C  0.00827992  0.41528773  0.95793773    -0.11600
C1562       C  0.00002750  0.40018271  0.99669413     0.14900
C1563       C  0.49282408  0.41103054  0.03696195     0.01800
C1564       C  0.49375502  0.43605472  0.03248297    -0.16000
C1565       C  0.00172853  0.45089693  0.99049384    -0.10800
C1566       C  0.00905945  0.44037543  0.95419177     0.08500
C1567       C  0.99979224  0.37389427  0.99876450     0.09600
S1568       S  0.48279786  0.39433137  0.08920795    -0.25100
H1569       H  0.48879095  0.44454678  0.06036176     0.19800
S1570       S  0.01930905  0.45718014  0.90192302    -0.30800
H1571       H  0.01399706  0.40731569  0.93022356     0.10100
C1572       C  0.97797556  0.34972016  0.98142166     0.03400
C1573       C  0.97854942  0.32521681  0.98407993    -0.13100
C1574       C  0.00048279  0.32428191  0.00397291    -0.08800
C1575       C  0.51921658  0.34755718  0.03316941     0.06800
C1576       C  0.51893795  0.37207198  0.02917728    -0.13900
S1577       S  0.94923442  0.35009744  0.95651619    -0.30800
H1578       H  0.96204192  0.30678759  0.96986921     0.11100
S1579       S  0.54420881  0.34732448  0.06931205    -0.27900
H1580       H  0.53406540  0.39008157  0.04643653     0.08300
H1581       H  0.01259763  0.47762413  0.90886500     0.26700
H1582       H  0.93379044  0.32191567  0.94779158     0.21500
H1583       H  0.52682245  0.32079440  0.08521820     0.26800
H1584       H  0.46993855  0.36745892  0.07299210     0.15700
O1585       O  0.52435893  0.76497320  0.92611324    -0.73200
O1586       O  0.52565584  0.76316972  0.05641079    -0.74200
O1587       O  0.52564119  0.72889966  0.98861218    -0.62800
O1588       O  0.52394558  0.79926692  0.99379876    -0.71200
O1589       O  0.97631954  0.77469951  0.00643395    -0.70700
O1590       O  0.97602212  0.70376300  0.99958652    -0.62000
O1591       O  0.97706049  0.73792583  0.06846626    -0.74500
O1592       O  0.97512245  0.74044150  0.93802331    -0.73300
Cu1593     Cu  0.52647527  0.76494006  0.99122562     1.04600
Cu1594     Cu  0.97455850  0.73841331  0.00326346     1.04300
C1595       C  0.50164084  0.75346727  0.90568760     0.93000
C1596       C  0.50322447  0.75084082  0.07750901     0.92200
C1597       C  0.50312735  0.70616282  0.98757709     0.84300
C1598       C  0.50104386  0.79865166  0.99504175     0.90600
O1599       O  0.97773548  0.77155313  0.50282190    -0.73200
O1600       O  0.97938898  0.70149729  0.50224037    -0.74200
O1601       O  0.97775953  0.73626789  0.56753190    -0.62800
O1602       O  0.97912609  0.73688476  0.43699558    -0.71200
O1603       O  0.52578507  0.76047491  0.42648711    -0.70700
O1604       O  0.52531922  0.75983689  0.55700466    -0.62000
O1605       O  0.52582423  0.72486061  0.49121538    -0.74500
O1606       O  0.52522155  0.79559567  0.49258065    -0.73300
Cu1607     Cu  0.97694990  0.73572787  0.50226319     1.04600
Cu1608     Cu  0.52709744  0.76101395  0.49174179     1.04300
C1609       C  0.00012155  0.79434535  0.50413680     0.93000
C1610       C  0.00217414  0.70186408  0.50291399     0.92200
C1611       C  0.00016072  0.74801967  0.58884499     0.84300
C1612       C  0.00192419  0.74827630  0.41677954     0.90600
C1613       C  0.97550422  0.97553339  0.99245650     0.02000
C1614       C  0.00078656  0.97607073  0.99365408     0.02000
C1615       C  0.52527671  0.50138286  0.99241600     0.02000
C1616       C  0.52512541  0.52632342  0.99140677     0.02000
C1617       C  0.00004144  0.52654235  0.98735746     0.02000
C1618       C  0.97498130  0.00026439  0.99136878     0.02000
C1619       C  0.52396224  0.52099477  0.50319410     0.02000
C1620       C  0.52378353  0.99660749  0.49759214     0.02000
C1621       C  0.99848436  0.97152324  0.51162421     0.02000
C1622       C  0.97343271  0.97147322  0.51067206     0.02000
C1623       C  0.97341021  0.99648813  0.51044130     0.02000
C1624       C  0.99847751  0.52141526  0.50136587     0.02000
O1625       O  0.79696658  0.52341545  0.01284626    -0.73200
O1626       O  0.72626579  0.52385631  0.00558808    -0.74200
O1627       O  0.76086434  0.52583959  0.07434596    -0.62800
O1628       O  0.76252025  0.52137410  0.94395887    -0.71200
O1629       O  0.74124497  0.98168451  0.93777678    -0.70700
O1630       O  0.73921760  0.98163987  0.06797800    -0.62000
O1631       O  0.70536923  0.98276803  0.00092221    -0.74500
O1632       O  0.77527172  0.98084931  0.00473510    -0.73300
Cu1633     Cu  0.76242071  0.52517608  0.00905569     1.04600
Cu1634     Cu  0.73947937  0.98020558  0.00284837     1.04300
C1635       C  0.79685702  0.50079052  0.01519613     0.93000
C1636       C  0.70355251  0.50133323  0.00630595     0.92200
C1637       C  0.74934999  0.50388779  0.09673540     0.84300
C1638       C  0.75107176  0.49811125  0.92496525     0.90600
O1639       O  0.79916816  0.52568034  0.51209631    -0.73200
O1640       O  0.72767120  0.52496776  0.51188082    -0.74200
O1641       O  0.76268213  0.52353272  0.57771540    -0.62800
O1642       O  0.76442466  0.52742183  0.44687676    -0.71200
O1643       O  0.73912625  0.97867929  0.43737453    -0.70700
O1644       O  0.73976984  0.97829694  0.56792883    -0.62000
O1645       O  0.70403673  0.97862397  0.50290584    -0.74500
O1646       O  0.77494310  0.97861853  0.50173993    -0.73300
Cu1647     Cu  0.76427868  0.52700077  0.51236257     1.04600
Cu1648     Cu  0.73867550  0.97697180  0.50256520     1.04300
C1649       C  0.79758631  0.00123166  0.50245852     0.93000
C1650       C  0.70421747  0.00130803  0.50157901     0.92200
C1651       C  0.75089366  0.00088070  0.58886687     0.84300
C1652       C  0.75084246  0.00137490  0.41695385     0.90600
O1653       O  0.76123744  0.73738224  0.93682013    -0.73200
O1654       O  0.76044632  0.73923064  0.06727087    -0.74200
O1655       O  0.72512425  0.70350858  0.00264447    -0.62800
O1656       O  0.79683057  0.77371114  0.00179250    -0.71200
O1657       O  0.77501100  0.79704599  0.99901485    -0.70700
O1658       O  0.70336087  0.72699827  0.00043399    -0.62000
O1659       O  0.73903834  0.76307515  0.06530578    -0.74500
O1660       O  0.73937564  0.76073502  0.93437610    -0.73300
Cu1661     Cu  0.76171208  0.73769167  0.00219538     1.04600
Cu1662     Cu  0.73845568  0.76280650  0.99971635     1.04300
C1663       C  0.75006067  0.74834657  0.91492801     0.93000
C1664       C  0.74957541  0.75134078  0.08690545     0.92200
C1665       C  0.70291337  0.70421331  0.00205612     0.84300
C1666       C  0.79732006  0.79652355  0.99984170     0.90600
O1667       O  0.75925104  0.73478691  0.56492482    -0.73200
O1668       O  0.75750432  0.73568949  0.43428652    -0.74200
O1669       O  0.79446117  0.77028230  0.49932608    -0.62800
O1670       O  0.72248685  0.70052141  0.49967570    -0.71200
O1671       O  0.70084615  0.72391193  0.50232300    -0.70700
O1672       O  0.77277983  0.79381531  0.50181295    -0.62000
O1673       O  0.73571958  0.75911465  0.43659549    -0.74500
O1674       O  0.73743042  0.75820175  0.56723334    -0.73300
Cu1675     Cu  0.75921380  0.73454261  0.49946730     1.04600
Cu1676     Cu  0.73600180  0.75964198  0.50205676     1.04300
C1677       C  0.74819301  0.74596705  0.58671946     0.93000
C1678       C  0.74586980  0.74706435  0.41477180     0.92200
C1679       C  0.79500894  0.79312942  0.50042586     0.84300
C1680       C  0.70015929  0.70103296  0.50090963     0.90600
C1681       C  0.74827039  0.72482384  0.79796279    -0.11600
C1682       C  0.75161538  0.74761621  0.77475907     0.14900
C1683       C  0.75394577  0.77032873  0.79773559     0.01800
C1684       C  0.75281877  0.76974922  0.84328651    -0.16000
C1685       C  0.74975362  0.74707968  0.86673512    -0.10800
C1686       C  0.74697784  0.72414515  0.84353052     0.08500
C1687       C  0.75079879  0.74640317  0.72661354     0.09600
S1688       S  0.75849061  0.80066688  0.77085903    -0.25100
H1689       H  0.75494871  0.78743706  0.86059806     0.19800
S1690       S  0.73999138  0.69278413  0.86971578    -0.30800
H1691       H  0.74585192  0.70712081  0.78032515     0.10100
C1692       C  0.77299003  0.74892238  0.70206590     0.03400
C1693       C  0.77143554  0.74819722  0.65639610    -0.13100
C1694       C  0.74806363  0.74489361  0.63483611    -0.08800
C1695       C  0.72545655  0.74130817  0.65976216     0.06800
C1696       C  0.72724577  0.74252451  0.70523473    -0.13900
S1697       S  0.80362148  0.75406972  0.72889981    -0.30800
H1698       H  0.78870998  0.75084264  0.63736332     0.11100
S1699       S  0.69333277  0.73379353  0.63575950    -0.27900
H1700       H  0.70998192  0.74001923  0.72422285     0.08300
H1701       H  0.72210153  0.69340890  0.90099563     0.26700
H1702       H  0.81793665  0.75486119  0.69091921     0.21500
H1703       H  0.69401174  0.71702139  0.60239809     0.26800
H1704       H  0.77277621  0.79899186  0.73458976     0.15700
C1705       C  0.75168300  0.77212647  0.20539148    -0.11600
C1706       C  0.74453711  0.74749686  0.22657402     0.14900
C1707       C  0.73894782  0.72425059  0.20166933     0.01800
C1708       C  0.74147732  0.72637954  0.15634320    -0.16000
C1709       C  0.74861906  0.75099193  0.13497001    -0.10800
C1710       C  0.75403497  0.77420705  0.15995398     0.08500
C1711       C  0.74491896  0.74720301  0.27469192     0.09600
S1712       S  0.72872238  0.69140057  0.22568184    -0.25100
H1713       H  0.73737301  0.70847790  0.13754237     0.19800
S1714       S  0.76574653  0.80738045  0.13617204    -0.30800
H1715       H  0.75635839  0.79009690  0.22454525     0.10100
C1716       C  0.76684646  0.74795279  0.29758078     0.03400
C1717       C  0.76647722  0.74763281  0.34324005    -0.13100
C1718       C  0.74452135  0.74641161  0.36658614    -0.08800
C1719       C  0.72217255  0.74486106  0.34330499     0.06800
C1720       C  0.72290430  0.74585894  0.29772616    -0.13900
S1721       S  0.79563205  0.75001891  0.26862312    -0.30800
H1722       H  0.78362586  0.74884855  0.36087448     0.11100
S1723       S  0.69148485  0.73992686  0.36945531    -0.27900
H1724       H  0.70583370  0.74477949  0.27997787     0.08300
H1725       H  0.78168626  0.80461414  0.10352822     0.26700
H1726       H  0.80893213  0.74713145  0.30521389     0.21500
H1727       H  0.69087258  0.72145196  0.40070670     0.26800
H1728       H  0.71618656  0.69477758  0.26285388     0.15700
C1729       C  0.75418839  0.98233050  0.70684212    -0.11600
C1730       C  0.74970478  0.49680459  0.73685892     0.14900
C1731       C  0.74632368  0.51664562  0.71436719     0.01800
C1732       C  0.74784360  0.51768990  0.66881811    -0.16000
C1733       C  0.75111972  0.00084261  0.63699383    -0.10800
C1734       C  0.75557644  0.98221017  0.66132214     0.08500
C1735       C  0.74999763  0.49591968  0.78502838     0.09600
S1736       S  0.74027517  0.54135021  0.74186220    -0.25100
H1737       H  0.74489889  0.53280513  0.65187008     0.19800
S1738       S  0.76486838  0.95905124  0.63658767    -0.30800
H1739       H  0.75792728  0.96825024  0.72538932     0.10100
C1740       C  0.72863214  0.98125336  0.80191400     0.03400
C1741       C  0.73049049  0.98254057  0.84749156    -0.13100
C1742       C  0.75169308  0.49668680  0.87690814    -0.08800
C1743       C  0.77542559  0.51396357  0.85263073     0.06800
C1744       C  0.77421794  0.51362211  0.80708058    -0.13900
S1745       S  0.69871099  0.95407074  0.77572769    -0.30800
H1746       H  0.71379519  0.96722406  0.86669957     0.11100
S1747       S  0.80806801  0.53613851  0.87772606    -0.27900
H1748       H  0.79236626  0.52713104  0.78858530     0.08300
H1749       H  0.78139727  0.97738239  0.60400785     0.26700
H1750       H  0.68545394  0.93992764  0.81394022     0.21500
H1751       H  0.80457171  0.51828191  0.91217161     0.26800
H1752       H  0.72613031  0.52486121  0.77766766     0.15700
C1753       C  0.72782057  0.98434608  0.29928868    -0.11600
C1754       C  0.75290717  0.50723025  0.28497268     0.14900
C1755       C  0.77701286  0.52389817  0.30876776     0.01800
C1756       C  0.77610259  0.52368405  0.35439212    -0.16000
C1757       C  0.75056661  0.00143185  0.36892315    -0.10800
C1758       C  0.72665159  0.98442707  0.34479654     0.08500
C1759       C  0.75236783  0.50652023  0.23685498     0.09600
S1760       S  0.80956407  0.54529775  0.28292749    -0.25100
H1761       H  0.79473565  0.53622011  0.37254806     0.19800
S1762       S  0.69376971  0.96352240  0.36994318    -0.30800
H1763       H  0.70935365  0.97157624  0.28087719     0.10100
C1764       C  0.74976842  0.97986672  0.20396384     0.03400
C1765       C  0.74911046  0.98115549  0.15840638    -0.13100
C1766       C  0.74941319  0.50512676  0.14500642    -0.08800
C1767       C  0.75015678  0.52712451  0.16843527     0.06800
C1768       C  0.75207826  0.52776785  0.21396334    -0.13900
S1769       S  0.74890919  0.95082433  0.22998160    -0.30800
H1770       H  0.74837441  0.96474638  0.13912536     0.11100
S1771       S  0.74720012  0.55416008  0.14272803    -0.27900
H1772       H  0.75260455  0.54457689  0.23181586     0.08300
H1773       H  0.69771743  0.98229557  0.40324970     0.26700
H1774       H  0.74546386  0.93561874  0.19178375     0.21500
H1775       H  0.72712609  0.53683789  0.11268835     0.26800
H1776       H  0.80474391  0.52869210  0.24605629     0.15700
C1777       C  0.62403524  0.64756495  0.50553478    -0.11600
C1778       C  0.62519736  0.62345104  0.50432449     0.14900
C1779       C  0.65063931  0.62476665  0.50145726     0.01800
C1780       C  0.67445023  0.65024952  0.49958598    -0.16000
C1781       C  0.67367533  0.67478079  0.50102027    -0.10800
C1782       C  0.64779413  0.67313414  0.50358621     0.08500
C1783       C  0.59940544  0.59720794  0.50438961     0.09600
S1784       S  0.65406952  0.59469574  0.49985819    -0.25100
H1785       H  0.69380932  0.65074996  0.49749225     0.19800
S1786       S  0.64312496  0.70238227  0.50418899    -0.30800
H1787       H  0.60433550  0.64639791  0.50737083     0.10100
C1788       C  0.58552871  0.58543429  0.54346774     0.03400
C1789       C  0.56110151  0.56042750  0.54200453    -0.13100
C1790       C  0.55013597  0.54721710  0.50219951    -0.08800
C1791       C  0.56397850  0.55929307  0.46292838     0.06800
C1792       C  0.58861891  0.58405414  0.46459429    -0.13900
S1793       S  0.59930661  0.60197406  0.59513146    -0.30800
H1794       H  0.55057311  0.55092230  0.57198034     0.11100
S1795       S  0.55172530  0.54464705  0.40965843    -0.27900
H1796       H  0.59939901  0.59334478  0.43458507     0.08300
H1797       H  0.65682744  0.71243465  0.46433362     0.26700
H1798       H  0.57726506  0.58333675  0.62094521     0.21500
H1799       H  0.52475116  0.52564550  0.42089227     0.26800
H1800       H  0.63095487  0.57789775  0.52520130     0.15700
C1801       C  0.90660809  0.91047996  0.47191978    -0.11600
C1802       C  0.89799442  0.89444224  0.50968885     0.14900
C1803       C  0.91468830  0.90335117  0.54719815     0.01800
C1804       C  0.93877657  0.92869224  0.54676932    -0.16000
C1805       C  0.94721092  0.94501174  0.50920112    -0.10800
C1806       C  0.93125255  0.93529332  0.47085729     0.08500
C1807       C  0.87162908  0.86846788  0.50837796     0.09600
S1808       S  0.90671407  0.88323306  0.59622721    -0.25100
H1809       H  0.95133685  0.93559705  0.57581799     0.19800
S1810       S  0.94134814  0.95251387  0.41890917    -0.30800
H1811       H  0.89415050  0.90335067  0.44274727     0.10100
C1812       C  0.84849245  0.86526046  0.53088852     0.03400
C1813       C  0.82366569  0.84062466  0.52704670    -0.13100
C1814       C  0.82147143  0.81902569  0.50128928    -0.08800
C1815       C  0.84470902  0.82253599  0.47829487     0.06800
C1816       C  0.86947567  0.84708582  0.48232794    -0.13900
S1817       S  0.85050153  0.89253359  0.56432814    -0.30800
H1818       H  0.80597111  0.83797702  0.54481899     0.11100
S1819       S  0.84392615  0.79714787  0.44173378    -0.27900
H1820       H  0.88718402  0.84973771  0.46449958     0.08300
H1821       H  0.96911981  0.96999154  0.42798989     0.26700
H1822       H  0.82269108  0.87960849  0.57561760     0.21500
H1823       H  0.81791460  0.78926259  0.42469924     0.26800
H1824       H  0.89215980  0.85758107  0.57580116     0.15700
C1825       C  0.64958315  0.51918943  0.48422915    -0.11600
C1826       C  0.62716201  0.99929069  0.49866617     0.14900
C1827       C  0.62951967  0.97811939  0.51861118     0.01800
C1828       C  0.65485876  0.97941383  0.51914426    -0.16000
C1829       C  0.67798325  0.00119793  0.49958309    -0.10800
C1830       C  0.67513175  0.52086253  0.48419085     0.08500
C1831       C  0.60113028  0.99934602  0.49813103     0.09600
S1832       S  0.60112319  0.94915590  0.54449031    -0.25100
H1833       H  0.65651399  0.96324270  0.53518269     0.19800
S1834       S  0.70170854  0.54766202  0.45202666    -0.30800
H1835       H  0.64699963  0.53439069  0.46677645     0.10100
C1836       C  0.59198984  0.50612137  0.54225771     0.03400
C1837       C  0.56674336  0.50508687  0.54070276    -0.13100
C1838       C  0.55025780  0.99699353  0.49612968    -0.08800
C1839       C  0.56021634  0.99048802  0.45825350     0.06800
C1840       C  0.58542399  0.99149351  0.45996006    -0.13900
S1841       S  0.61293166  0.51856555  0.59059691    -0.30800
H1842       H  0.55971762  0.51140419  0.56884480     0.11100
S1843       S  0.54258118  0.98107044  0.40653305    -0.27900
H1844       H  0.59291059  0.98608821  0.43129490     0.08300
H1845       H  0.71263347  0.53176071  0.43643221     0.26700
H1846       H  0.59484763  0.52345795  0.61527762     0.21500
H1847       H  0.52121729  0.98585681  0.41661875     0.26800
H1848       H  0.58040495  0.94849244  0.51838165     0.15700
C1849       C  0.87435901  0.52271317  0.52003662    -0.11600
C1850       C  0.87201063  0.99755544  0.50093084     0.14900
C1851       C  0.84629776  0.97355702  0.50185338     0.01800
C1852       C  0.82263209  0.97550362  0.50284873    -0.16000
C1853       C  0.82379181  0.00097142  0.50136149    -0.10800
C1854       C  0.85111578  0.52544008  0.51982690     0.08500
C1855       C  0.89776024  0.99692653  0.50274673     0.09600
S1856       S  0.84223980  0.93984669  0.50122837    -0.25100
H1857       H  0.80310969  0.95677012  0.50427270     0.19800
S1858       S  0.85601787  0.55837592  0.53487951    -0.30800
H1859       H  0.89391969  0.54008999  0.52896895     0.10100
C1860       C  0.91503768  0.00385991  0.46622834     0.03400
C1861       C  0.93949841  0.00350432  0.46969160    -0.13100
C1862       C  0.94718265  0.99659555  0.50896422    -0.08800
C1863       C  0.93302781  0.49164849  0.54471621     0.06800
C1864       C  0.90875334  0.49260618  0.54488651    -0.13900
S1865       S  0.90559906  0.01238653  0.41488914    -0.30800
H1866       H  0.95262779  0.00831124  0.44154438     0.11100
S1867       S  0.94573051  0.48558932  0.59489892    -0.27900
H1868       H  0.89763672  0.48970491  0.57501161     0.08300
H1869       H  0.84755988  0.56247537  0.49384052     0.26700
H1870       H  0.93010974  0.01963795  0.39283273     0.21500
H1871       H  0.92289049  0.47978835  0.62067272     0.26800
H1872       H  0.86640782  0.94676750  0.47843184     0.15700
C1873       C  0.64711709  0.63146136  0.02513000    -0.11600
C1874       C  0.62616135  0.62930393  0.99816229     0.14900
C1875       C  0.62999973  0.65228737  0.97427474     0.01800
C1876       C  0.65520583  0.67648095  0.97632082    -0.16000
C1877       C  0.67644464  0.67852358  0.00264545    -0.10800
C1878       C  0.67197655  0.65588624  0.02822312     0.08500
C1879       C  0.60055714  0.60282112  0.99610271     0.09600
S1880       S  0.60371813  0.65214966  0.94069005    -0.25100
H1881       H  0.65830867  0.69384276  0.95699168     0.19800
S1882       S  0.69649121  0.65724853  0.06708051    -0.30800
H1883       H  0.64393901  0.61400498  0.04427909     0.10100
C1884       C  0.59290140  0.58653900  0.95827936     0.03400
C1885       C  0.56805643  0.56194370  0.95768883    -0.13100
C1886       C  0.55123841  0.55265612  0.99465719    -0.08800
C1887       C  0.55958372  0.56855625  0.03325886     0.06800
C1888       C  0.58398936  0.59357420  0.03324209    -0.13900
S1889       S  0.61504820  0.59662807  0.91124509    -0.30800
H1890       H  0.56161408  0.54983974  0.92818764     0.11100
S1891       S  0.54091965  0.55853865  0.08404347    -0.27900
H1892       H  0.59024911  0.60597840  0.06256902     0.08300
H1893       H  0.70500138  0.68413298  0.08045444     0.26700
H1894       H  0.59942571  0.57261957  0.88684018     0.21500
H1895       H  0.51930327  0.53298228  0.07165686     0.26800
H1896       H  0.58123005  0.63166262  0.96345072     0.15700
C1897       C  0.87239360  0.84982588  0.98385376    -0.11600
C1898       C  0.87316651  0.87328814  0.00060237     0.14900
C1899       C  0.84877763  0.87156783  0.01582158     0.01800
C1900       C  0.82458159  0.84626139  0.01573552    -0.16000
C1901       C  0.82371909  0.82264250  0.99904522    -0.09000
C1902       C  0.84799703  0.82478612  0.98202025     0.08500
C1903       C  0.89950832  0.89935138  0.99956947     0.09600
S1904       S  0.84689369  0.90085638  0.03471679    -0.25100
H1905       H  0.80615662  0.84512069  0.02843689     0.19800
S1906       S  0.84913927  0.79700730  0.95513260    -0.30800
H1907       H  0.89092959  0.85121697  0.97109104     0.10100
C1908       C  0.91330848  0.91307586  0.03793985     0.03400
C1909       C  0.93783998  0.93805119  0.03471506    -0.13100
C1910       C  0.94937781  0.94898781  0.99396898    -0.08800
C1911       C  0.93610858  0.93466093  0.95571825     0.06800
C1912       C  0.91118393  0.91016292  0.95890057    -0.13900
S1913       S  0.90034051  0.89830959  0.09084412    -0.30800
H1914       H  0.94833908  0.94902213  0.06392880     0.11100
S1915       S  0.95079414  0.94728912  0.90279596    -0.27900
H1916       H  0.90063201  0.89928826  0.92965304     0.08300
H1917       H  0.82487022  0.78849005  0.93146565     0.26700
H1918       H  0.92142099  0.91920702  0.11554020     0.21500
H1919       H  0.93105846  0.92509564  0.87834802     0.26800
H1920       H  0.86811502  0.92032344  0.00856737     0.15700
C1921       C  0.58871368  0.00122839  0.03265411    -0.11600
C1922       C  0.60281244  0.50432863  0.99893200     0.14900
C1923       C  0.59223953  0.50706395  0.95887418     0.01800
C1924       C  0.56675521  0.50532604  0.95786576    -0.16000
C1925       C  0.55167130  0.50166872  0.99607628    -0.10800
C1926       C  0.56306191  0.99936571  0.03205749     0.08500
C1927       C  0.62868844  0.50385037  0.00135738     0.09600
S1928       S  0.61040202  0.51318775  0.90803534    -0.25100
H1929       H  0.55887167  0.50745223  0.92690810     0.19800
S1930       S  0.54477413  0.99123603  0.08314792    -0.30800
H1931       H  0.59610162  0.99717104  0.06271123     0.10100
C1932       C  0.65255620  0.52578335  0.01923744     0.03400
C1933       C  0.67667771  0.52445372  0.02029974    -0.13100
C1934       C  0.67753506  0.50171826  0.00343537    -0.08800
C1935       C  0.65691136  0.98605809  0.97460689     0.06800
C1936       C  0.63261274  0.98685178  0.97525781    -0.13900
S1937       S  0.65245035  0.55578008  0.03942476    -0.30800
H1938       H  0.69493502  0.54116073  0.03455981     0.11100
S1939       S  0.65724236  0.95957206  0.94225499    -0.27900
H1940       H  0.61490426  0.97125257  0.95800156     0.08300
H1941       H  0.52144490  0.99173150  0.06952605     0.26700
H1942       H  0.68014660  0.57050493  0.05150048     0.21500
H1943       H  0.68338431  0.97670728  0.92473852     0.26800
H1944       H  0.63675088  0.52794642  0.92601920     0.15700
C1945       C  0.91139410  0.00378528  0.96235338    -0.11600
C1946       C  0.89990471  0.50186164  0.00686899     0.14900
C1947       C  0.91468039  0.50050706  0.04295567     0.01800
C1948       C  0.93863749  0.49951912  0.03597481    -0.16000
C1949       C  0.94842535  0.99968520  0.99416644    -0.10800
C1950       C  0.93575846  0.00332687  0.95730346     0.08500
C1951       C  0.87406610  0.50244655  0.01174208     0.09600
S1952       S  0.90453788  0.50075858  0.09859244    -0.25100
H1953       H  0.94998577  0.49865718  0.06377824     0.19800
S1954       S  0.95034525  0.00737158  0.90376536    -0.30800
H1955       H  0.90131904  0.00613115  0.93405355     0.10100
C1956       C  0.87207585  0.52518526  0.99818632     0.03400
C1957       C  0.84681299  0.52418053  0.00047647    -0.13100
C1958       C  0.82333711  0.50105036  0.01668105    -0.08800
C1959       C  0.82547147  0.97928762  0.02271178     0.06800
C1960       C  0.85022149  0.97939005  0.02040631    -0.13900
S1961       S  0.90185897  0.55575442  0.97867161    -0.30800
H1962       H  0.84531003  0.54142686  0.98890164     0.11100
S1963       S  0.79685726  0.94929572  0.04569385    -0.27900
H1964       H  0.85089534  0.96131165  0.03004239     0.08300
H1965       H  0.93289763  0.01456865  0.88232460     0.26700
H1966       H  0.88868806  0.57062215  0.96908614     0.21500
H1967       H  0.78856079  0.96418807  0.07218468     0.26800
H1968       H  0.89262279  0.51701679  0.09101229     0.15700
C1969       C  0.52545893  0.64796108  0.48868951    -0.11600
C1970       C  0.50028204  0.62399246  0.49384697     0.14900
C1971       C  0.97513800  0.62544589  0.49918324     0.01800
C1972       C  0.97694023  0.65102691  0.49925434    -0.16000
C1973       C  0.00222334  0.67547144  0.50306996    -0.10800
C1974       C  0.52741499  0.67363981  0.48823359     0.08500
C1975       C  0.49985030  0.59767966  0.49622807     0.09600
S1976       S  0.94156619  0.59562830  0.49445044    -0.25100
H1977       H  0.95818101  0.65167146  0.49645603     0.19800
S1978       S  0.56126152  0.70270253  0.48312720    -0.30800
H1979       H  0.54387446  0.64664771  0.48581501     0.10100
C1980       C  0.50001333  0.58378908  0.45824960     0.03400
C1981       C  0.50003737  0.55913069  0.46194742    -0.13100
C1982       C  0.99813069  0.54751133  0.50292336    -0.08800
C1983       C  0.00174731  0.56215581  0.54216131     0.06800
C1984       C  0.00201213  0.58701246  0.54093493    -0.13900
S1985       S  0.49953447  0.59717371  0.40510896    -0.30800
H1986       H  0.50000278  0.54833482  0.43282500     0.11100
S1987       S  0.00620626  0.55084283  0.59498239    -0.27900
H1988       H  0.00477083  0.59826785  0.57093138     0.08300
H1989       H  0.55998399  0.71348657  0.52389870     0.26700
H1990       H  0.49646678  0.57464689  0.38089908     0.21500
H1991       H  0.00570732  0.52674262  0.58253237     0.26800
H1992       H  0.94734306  0.57738787  0.51658240     0.15700
C1993       C  0.50650648  0.91152555  0.53624320    -0.11600
C1994       C  0.99781483  0.89514977  0.50977020     0.14900
C1995       C  0.98835485  0.90347856  0.47374723     0.01800
C1996       C  0.98942577  0.92864092  0.47504951    -0.16000
C1997       C  0.99833083  0.94515928  0.51245614    -0.10800
C1998       C  0.50572575  0.93584356  0.53809533     0.08500
C1999       C  0.50130626  0.87059808  0.49778826     0.09600
S2000       S  0.97440356  0.88282971  0.42546153    -0.25100
H2001       H  0.98283587  0.93521971  0.44679352     0.19800
S2002       S  0.51331436  0.95335960  0.58992904    -0.30800
H2003       H  0.51244389  0.90464580  0.56500145     0.10100
C2004       C  0.52130931  0.86851590  0.47338928     0.03400
C2005       C  0.52145007  0.84376390  0.47311203    -0.13100
C2006       C  0.99960423  0.82017685  0.50696000    -0.08800
C2007       C  0.98011069  0.82264388  0.53254688     0.06800
C2008       C  0.97992124  0.84725437  0.53280214    -0.13900
S2009       S  0.54700602  0.89755973  0.44348208    -0.30800
H2010       H  0.53643993  0.84190224  0.45374388     0.11100
S2011       S  0.95588593  0.79575023  0.56735225    -0.27900
H2012       H  0.96482022  0.84900102  0.55213074     0.08300
H2013       H  0.50103647  0.96922845  0.58219620     0.26700
H2014       H  0.55912743  0.88392458  0.42323184     0.21500
H2015       H  0.97448291  0.78776123  0.58150999     0.26800
H2016       H  0.96354800  0.85742914  0.44646090     0.15700
C2017       C  0.52209004  0.74770867  0.69623938    -0.11600
C2018       C  0.99697473  0.75183772  0.72866397     0.14900
C2019       C  0.97667160  0.75220992  0.70247176     0.01800
C2020       C  0.97788219  0.75017617  0.65717153    -0.16000
C2021       C  0.99937479  0.74856418  0.63705986    -0.10800
C2022       C  0.52303062  0.74675455  0.65074415     0.08500
C2023       C  0.99600854  0.75213041  0.77679776     0.09600
S2024       S  0.94889940  0.75549992  0.72466524    -0.25100
H2025       H  0.96220609  0.75051479  0.63742329     0.19800
S2026       S  0.55056403  0.74370592  0.62706503    -0.30800
H2027       H  0.53794554  0.74720456  0.71526801     0.10100
C2028       C  0.97698552  0.72906867  0.80053275     0.03400
C2029       C  0.97740906  0.73008250  0.84620777    -0.13100
C2030       C  0.99669832  0.75356268  0.86864377    -0.08800
C2031       C  0.52147984  0.77490315  0.83234311     0.06800
C2032       C  0.52099811  0.77263897  0.78695332    -0.13900
S2033       S  0.95301138  0.69796990  0.77273886    -0.30800
H2034       H  0.96318240  0.71222641  0.86458194     0.11100
S2035       S  0.54761955  0.80654196  0.85576898    -0.27900
H2036       H  0.53624159  0.78951330  0.76781684     0.08300
H2037       H  0.53414795  0.72453779  0.59520285     0.26700
H2038       H  0.93959984  0.68289177  0.81019548     0.21500
H2039       H  0.53036636  0.80809581  0.88729685     0.26800
H2040       H  0.96260917  0.77001221  0.76239508     0.15700
C2041       C  0.98068061  0.72808037  0.20696711    -0.11600
C2042       C  0.50452357  0.75128540  0.21753029     0.14900
C2043       C  0.52509211  0.77332317  0.19371386     0.01800
C2044       C  0.52456661  0.77230348  0.14813862    -0.16000
C2045       C  0.00055466  0.74808840  0.13673002    -0.10800
C2046       C  0.98013210  0.72631708  0.16146557     0.08500
C2047       C  0.50408093  0.75091718  0.26565779     0.09600
S2048       S  0.55236713  0.80335186  0.21938912    -0.25100
H2049       H  0.54007361  0.78960411  0.13012380     0.19800
S2050       S  0.95374826  0.69508129  0.13734567    -0.30800
H2051       H  0.96507683  0.71128136  0.22573329     0.10100
C2052       C  0.98277919  0.75444239  0.30124471     0.03400
C2053       C  0.98309386  0.75319831  0.34685294    -0.13100
C2054       C  0.00205460  0.74832116  0.36864941    -0.08800
C2055       C  0.52251576  0.74460107  0.33349333     0.06800
C2056       C  0.52284946  0.74613568  0.28800308    -0.13900
S2057       S  0.95870845  0.76162318  0.27425727    -0.30800
H2058       H  0.96880508  0.75648335  0.36571319     0.11100
S2059       S  0.54587114  0.73584154  0.35877737    -0.27900
H2060       H  0.53743421  0.74294995  0.26975724     0.08300
H2061       H  0.97075366  0.69383860  0.10500640     0.26700
H2062       H  0.94645802  0.76461066  0.31219000     0.21500
H2063       H  0.52738606  0.71897726  0.39094071     0.26800
H2064       H  0.53774492  0.80267745  0.25685152     0.15700
C2065       C  0.50954243  0.59462418  0.94950013    -0.11600
C2066       C  0.50166768  0.60326498  0.98679742     0.14900
C2067       C  0.99185716  0.58525736  0.02728963     0.01800
C2068       C  0.99294943  0.56116980  0.02544862    -0.16000
C2069       C  0.99937079  0.55249541  0.98659442    -0.10800
C2070       C  0.50870945  0.56947300  0.94834866     0.08500
C2071       C  0.50304965  0.63005397  0.98592987     0.09600
S2072       S  0.98193487  0.59371010  0.07825648    -0.25100
H2073       H  0.98842097  0.54888415  0.05456429     0.19800
S2074       S  0.51850111  0.56050353  0.89759675    -0.30800
H2075       H  0.51632334  0.60760321  0.92096478     0.10100
C2076       C  0.52450116  0.65328477  0.00615106     0.03400
C2077       C  0.52438437  0.67806165  0.00552704    -0.13100
C2078       C  0.99869036  0.67785247  0.99276392    -0.08800
C2079       C  0.97804123  0.65497536  0.97007506     0.06800
C2080       C  0.97835128  0.63041465  0.96978160    -0.13900
S2081       S  0.55200095  0.65131021  0.03251135    -0.30800
H2082       H  0.54043910  0.69576224  0.02208281     0.11100
S2083       S  0.95154698  0.65604789  0.93906353    -0.27900
H2084       H  0.96232038  0.61283569  0.95287529     0.08300
H2085       H  0.51013102  0.53314547  0.90684118     0.26700
H2086       H  0.56741986  0.67905192  0.04423121     0.21500
H2087       H  0.96877018  0.68241775  0.92247020     0.26800
H2088       H  0.96953504  0.60758845  0.06002907     0.15700
C2089       C  0.00693670  0.91400684  0.96260007    -0.11600
C2090       C  0.99938086  0.89938924  0.00179885     0.14900
C2091       C  0.49191677  0.91032064  0.02679202     0.01800
C2092       C  0.49384145  0.93588211  0.02427276    -0.16000
C2093       C  0.00119378  0.94998699  0.99523978    -0.10800
C2094       C  0.00751461  0.93891443  0.95856059     0.08500
C2095       C  0.99879697  0.87300576  0.00372222     0.09600
S2096       S  0.47961856  0.89162901  0.07706790    -0.25100
H2097       H  0.48820604  0.94353862  0.05244402     0.19800
S2098       S  0.01596419  0.95459768  0.90533942    -0.30800
H2099       H  0.01200617  0.90564262  0.93463349     0.10100
C2100       C  0.97856958  0.84979716  0.98164050     0.03400
C2101       C  0.97881076  0.82518371  0.98415193    -0.13100
C2102       C  0.99897509  0.82332311  0.00809601    -0.08800
C2103       C  0.52015181  0.84806974  0.01858172     0.06800
C2104       C  0.51961578  0.87249303  0.01557986    -0.13900
S2105       S  0.95218911  0.85142410  0.95087281    -0.30800
H2106       H  0.96349365  0.80740838  0.96676986     0.11100
S2107       S  0.54585632  0.84805459  0.05322567    -0.27900
H2108       H  0.53509576  0.89056177  0.03229277     0.08300
H2109       H  0.01046129  0.97581314  0.91299850     0.26700
H2110       H  0.93945855  0.82456569  0.93452675     0.21500
H2111       H  0.52865224  0.82173060  0.07005464     0.26800
H2112       H  0.46669596  0.86546593  0.05809495     0.15700
loop_ 
_geom_bond_atom_site_label_1 
_geom_bond_atom_site_label_2 
_geom_bond_distance 
_geom_bond_site_symmetry_2 
_ccdc_geom_bond_type 
O1           Cu9   2.007       .  S
O1           C11   1.278   1_455  A
O2           Cu9   2.010   1_554  S
O2           C12   1.278       .  A
O3           Cu9   2.014       .  S
O3           C13   1.278       .  A
O4           Cu9   2.014   1_554  S
O4           C14   1.278       .  A
O5          Cu10   2.006       .  S
O5         C1070   1.278       .  A
O6          Cu10   2.004       .  S
O6         C1069   1.277   1_554  A
O7          Cu10   2.008       .  S
O7         C1068   1.278       .  A
O8          Cu10   2.004   1_556  S
O8         C1067   1.278       .  A
Cu9       Cu1066   2.370   1_455  S
Cu10      Cu1065   2.372       .  S
C11        O1064   1.277       .  A
C11        C1502   1.479       .  S
C12        O1063   1.277   1_455  A
C12        C1517   1.479       .  S
C13        O1062   1.278   1_455  A
C13        C1550   1.484       .  S
C14        O1061   1.279   1_455  A
C14        C1574   1.489       .  S
O15         Cu23   2.002       .  S
O15          C25   1.277       .  A
O16         Cu23   2.007       .  S
O16          C26   1.279       .  A
O17         Cu23   2.005       .  S
O17          C27   1.278       .  A
O18         Cu23   2.011       .  S
O18          C28   1.278       .  A
O19         Cu24   2.011       .  S
O19        C1084   1.278       .  A
O20         Cu24   2.013       .  S
O20        C1083   1.279       .  A
O21         Cu24   2.003       .  S
O21        C1082   1.275       .  A
O22         Cu24   2.006       .  S
O22        C1081   1.277       .  A
Cu23      Cu1080   2.369       .  S
Cu24      Cu1079   2.369   1_455  S
C25        O1078   1.278       .  A
C25         C422   1.477       .  S
C26        O1077   1.277       .  A
C26         C389   1.493       .  S
C27        O1076   1.277       .  A
C27         C437   1.478       .  S
C28        O1075   1.277       .  A
C28         C470   1.479       .  S
C29         C326   1.488       .  S
C29          C30   1.417       .  A
C29          C34   1.415       .  A
C30         C509   1.489       .  S
C30        C1615   1.415       .  A
C31         C341   1.489       .  S
C31          C32   1.416       .  A
C31        C1614   1.415   1_545  A
C32         C302   1.488       .  S
C32        C1089   1.416   1_455  A
C33         C485   1.488       .  S
C33        C1088   1.417       .  A
C33         C562   1.415       .  A
C34         C365   1.488       .  S
C34         C561   1.415       .  A
C35         C206   1.483       .  S
C35         C564   1.414   1_545  A
C35        C1096   1.413   1_455  A
C36         C254   1.490       .  S
C36         C563   1.413       .  A
C36        C1093   1.414   1_455  A
C37         C413   1.487       .  S
C37          C38   1.417       .  A
C37        C1092   1.416       .  A
C38         C221   1.489       .  S
C38          C39   1.414       .  A
C39         C278   1.486       .  S
C39         C568   1.411       .  A
C40         C398   1.486       .  S
C40        C1091   1.411       .  A
C40         C567   1.413   1_545  A
O41         Cu49   2.014       .  S
O41          C51   1.279   1_545  A
O42         Cu49   2.015       .  S
O42          C52   1.279       .  A
O43         Cu49   2.004       .  S
O43          C53   1.277       .  A
O44         Cu49   2.006   1_556  S
O44          C54   1.278   1_545  A
O45         Cu50   2.002   1_556  S
O45         C582   1.277       .  A
O46         Cu50   2.000       .  S
O46         C581   1.277       .  A
O47         Cu50   2.008   1_556  S
O47         C580   1.278       .  A
O48         Cu50   2.009       .  S
O48         C579   1.278       .  A
Cu49       Cu578   2.368   1_545  S
Cu50       Cu577   2.369   1_554  S
C51         O576   1.278       .  A
C51         C374   1.495       .  S
C52         O575   1.278   1_545  A
C52         C350   1.486       .  S
C53         O574   1.279   1_545  A
C53         C182   1.483       .  S
C54         O573   1.278       .  A
C54         C158   1.478       .  S
O55         Cu63   2.013       .  S
O55         C593   1.277       .  A
O56         Cu63   2.017       .  S
O56         C594   1.279       .  A
O57         Cu63   2.012       .  S
O57         C595   1.278       .  A
O58         Cu63   2.011       .  S
O58         C596   1.278       .  A
O59         Cu64   2.000       .  S
O59          C68   1.277       .  A
O60         Cu64   2.006       .  S
O60          C67   1.277       .  A
O61         Cu64   2.012       .  S
O61          C66   1.279       .  A
O62         Cu64   2.009       .  S
O62          C65   1.279       .  A
Cu63       Cu592   2.369   1_545  S
Cu64       Cu591   2.370       .  S
C65         O583   1.276       .  A
C65         C269   1.489       .  S
C66         O584   1.278       .  A
C66         C245   1.484       .  S
C67         O585   1.278       .  A
C67         C149   1.479       .  S
C68         O586   1.278       .  A
C68         C173   1.474       .  S
O69         Cu77   2.001   1_556  S
O69          C79   1.277       .  A
O70         Cu77   1.995       .  S
O70          C80   1.276       .  A
O71         Cu77   2.007       .  S
O71          C81   1.278       .  A
O72         Cu77   2.009       .  S
O72          C82   1.278   1_554  A
O73         Cu78   2.007       .  S
O73          C82   1.278       .  A
O74         Cu78   2.009   1_554  S
O74          C81   1.278       .  A
O75         Cu78   2.016   1_554  S
O75          C80   1.279       .  A
O76         Cu78   2.013       .  S
O76          C79   1.279       .  A
Cu77        Cu78   2.371   1_554  S
C79         C101   1.478       .  S
C80         C125   1.478       .  S
C81         C293   1.477       .  S
C82         C317   1.487       .  S
O83         Cu91   2.012       .  S
O83          C93   1.278       .  A
O84         Cu91   2.008       .  S
O84          C94   1.278       .  A
O85         Cu91   2.008       .  S
O85          C95   1.278       .  A
O86         Cu91   2.011       .  S
O86          C96   1.279       .  A
O87         Cu92   2.002       .  S
O87          C96   1.276       .  A
O88         Cu92   2.004       .  S
O88          C95   1.277       .  A
O89         Cu92   2.006       .  S
O89          C94   1.277       .  A
O90         Cu92   1.999       .  S
O90          C93   1.277       .  A
Cu91        Cu92   2.370       .  S
C93         C110   1.478       .  S
C94         C134   1.480       .  S
C95         C230   1.477       .  S
C96         C197   1.492       .  S
C97          C98   1.401       .  A
C97         C102   1.398       .  A
C97         H107   1.084       .  S
C98         C103   1.477       .  S
C98          C99   1.411       .  A
C99         C100   1.399       .  A
C99         S104   1.804       .  S
C100        C101   1.405       .  A
C100        H105   1.084       .  S
C101        C102   1.416       .  A
C102        S106   1.803       .  S
C103        C108   1.409       .  A
C103        C112   1.400       .  A
S104        H120   1.406       .  S
S106        H117   1.408       .  S
C108        C109   1.403       .  A
C108        S113   1.806       .  S
C109        C110   1.405       .  A
C109        H114   1.082       .  S
C110        C111   1.415       .  A
C111        C112   1.397       .  A
C111        S115   1.804       .  S
C112        H116   1.084       .  S
S113        H118   1.407       .  S
S115        H119   1.408       .  S
C121        C122   1.402       .  A
C121        C126   1.400       .  A
C121        H131   1.085       .  S
C122        C127   1.478       .  S
C122        C123   1.411       .  A
C123        C124   1.397       .  A
C123        S128   1.805       .  S
C124        C125   1.405       .  A
C124        H129   1.084       .  S
C125        C126   1.415       .  A
C126        S130   1.803       .  S
C127        C132   1.410       .  A
C127        C136   1.400       .  A
S128        H144   1.405       .  S
S130        H141   1.407       .  S
C132        C133   1.403       .  A
C132        S137   1.807       .  S
C133        C134   1.406       .  A
C133        H138   1.083       .  S
C134        C135   1.416       .  A
C135        C136   1.398       .  A
C135        S139   1.801       .  S
C136        H140   1.084       .  S
S137        H142   1.407       .  S
S139        H143   1.407       .  S
C145        C150   1.400       .  A
C145        C674   1.402       .  A
C145        H155   1.083       .  S
C146        C151   1.479       .  S
C146        C147   1.411   1_565  A
C146        C673   1.401       .  A
C147        C148   1.399       .  A
C147        S152   1.804       .  S
C148        C677   1.405   1_545  A
C148        H153   1.083       .  S
C149        C150   1.416       .  A
C149        C676   1.404       .  A
C150        S154   1.803       .  S
C151        C160   1.400   1_565  A
C151        C684   1.409       .  A
S152        H168   1.405       .  S
S154        H165   1.408       .  S
C156        C157   1.403       .  A
C156        C679   1.408       .  A
C156        S161   1.806       .  S
C157        C686   1.406       .  A
C157        H162   1.083       .  S
C158        C159   1.415   1_565  A
C158        C685   1.406       .  A
C159        C160   1.398       .  A
C159        S163   1.804       .  S
C160        H164   1.084       .  S
S161        H166   1.407       .  S
S163        H167   1.407       .  S
C169        C174   1.397       .  A
C169        C698   1.401       .  A
C169        H179   1.084       .  S
C170        C175   1.478       .  S
C170        C171   1.412       .  A
C170        C697   1.401   1_545  A
C171        C172   1.401       .  A
C171        S176   1.804       .  S
C172        C701   1.404       .  A
C172        H177   1.084       .  S
C173        C174   1.414       .  A
C173        C700   1.404       .  A
C174        S178   1.804       .  S
C175        C184   1.401       .  A
C175        C708   1.408   1_545  A
S176        H192   1.406       .  S
S178        H189   1.407       .  S
C180        C181   1.401       .  A
C180        C703   1.407       .  A
C180        S185   1.807       .  S
C181        C710   1.407       .  A
C181        H186   1.082       .  S
C182        C183   1.418       .  A
C182        C709   1.406   1_545  A
C183        C184   1.400       .  A
C183        S187   1.803       .  S
C184        H188   1.084       .  S
S185        H190   1.407       .  S
S187        H191   1.408       .  S
C193        C194   1.398       .  A
C193        C198   1.397       .  A
C193        H203   1.085       .  S
C194        C199   1.472       .  S
C194        C195   1.409       .  A
C195        C196   1.399       .  A
C195        S200   1.808       .  S
C196        C197   1.411       .  A
C196        H201   1.083       .  S
C197        C198   1.422       .  A
C198        S202   1.801       .  S
C199        C204   1.406       .  A
C199        C208   1.399       .  A
S200        H216   1.404       .  S
S202        H213   1.406       .  S
C204        C205   1.400       .  A
C204        S209   1.805       .  S
C205        C206   1.404       .  A
C205        H210   1.082       .  S
C206        C207   1.414       .  A
C207        C208   1.396       .  A
C207        S211   1.806       .  S
C208        H212   1.084       .  S
S209        H214   1.407       .  S
S211        H215   1.399       .  S
C217        C218   1.402       .  A
C217        C222   1.398       .  A
C217        H227   1.084       .  S
C218        C223   1.480       .  S
C218        C219   1.412       .  A
C219        C220   1.397       .  A
C219        S224   1.804       .  S
C220        C221   1.403       .  A
C220        H225   1.083       .  S
C221        C222   1.415       .  A
C222        S226   1.806       .  S
C223        C228   1.410       .  A
C223        C232   1.402       .  A
S224        H240   1.406       .  S
S226        H237   1.403       .  S
C228        C229   1.402       .  A
C228        S233   1.806       .  S
C229        C230   1.405       .  A
C229        H234   1.083       .  S
C230        C231   1.414       .  A
C231        C232   1.398       .  A
C231        S235   1.803       .  S
C232        H236   1.084       .  S
S233        H238   1.407       .  S
S235        H239   1.407       .  S
C241        C246   1.401       .  A
C241        C770   1.401   1_545  A
C241        H251   1.084       .  S
C242        C247   1.480       .  S
C242        C243   1.413       .  A
C242        C769   1.401       .  A
C243        C244   1.401       .  A
C243        S248   1.806       .  S
C244        C245   1.406       .  A
C244        H249   1.084       .  S
C245        C774   1.417       .  A
C246        C773   1.418       .  A
C246        S250   1.803       .  S
C247        C256   1.401       .  A
C247        C780   1.407       .  A
S248        H264   1.405       .  S
S250        H261   1.407       .  S
C252        C253   1.401       .  A
C252        C775   1.407   1_545  A
C252        S257   1.806       .  S
C253        C782   1.405   1_545  A
C253        H258   1.082       .  S
C254        C255   1.417       .  A
C254        C781   1.404       .  A
C255        C256   1.400       .  A
C255        S259   1.807       .  S
C256        H260   1.084       .  S
S257        H262   1.407       .  S
S259        H263   1.398       .  S
C265        C270   1.400       .  A
C265        C794   1.400   1_545  A
C265        H275   1.085       .  S
C266        C271   1.478       .  S
C266        C267   1.409       .  A
C266        C793   1.399       .  A
C267        C268   1.397       .  A
C267        S272   1.803       .  S
C268        C269   1.408       .  A
C268        H273   1.084       .  S
C269        C798   1.421       .  A
C270        C797   1.420       .  A
C270        S274   1.799       .  S
C271        C276   1.409       .  A
C271        C808   1.403       .  A
S272        H288   1.406       .  S
S274        H285   1.408       .  S
C276        C277   1.398       .  A
C276        S281   1.806       .  S
C277        C278   1.402       .  A
C277        H282   1.082       .  S
C278        C807   1.410       .  A
C279        C280   1.403       .  A
C279        C806   1.411       .  A
C279        S283   1.805       .  S
C280        C799   1.402       .  A
C280        H284   1.083       .  S
S281        H286   1.407       .  S
S283        H287   1.406       .  S
C289        C290   1.401       .  A
C289        C294   1.397       .  A
C289        H299   1.085       .  S
C290        C295   1.478   1_554  S
C290        C291   1.414   1_554  A
C291        C292   1.400       .  A
C291        S296   1.807       .  S
C292        C293   1.405   1_556  A
C292        H297   1.085       .  S
C293        C294   1.414       .  A
C294        S298   1.803       .  S
C295        C300   1.407       .  A
C295        C304   1.401   1_556  A
S296        H312   1.405       .  S
S298        H309   1.407       .  S
C300        C301   1.398       .  A
C300        S305   1.807       .  S
C301        C302   1.403       .  A
C301        H306   1.081       .  S
C302        C303   1.416   1_556  A
C303        C304   1.399       .  A
C303        S307   1.807       .  S
C304        H308   1.084       .  S
S305        H310   1.407       .  S
S307        H311   1.399       .  S
C313        C314   1.401       .  A
C313        C318   1.398       .  A
C313        H323   1.085       .  S
C314        C319   1.480       .  S
C314        C315   1.412   1_556  A
C315        C316   1.400       .  A
C315        S320   1.806       .  S
C316        C317   1.408   1_554  A
C316        H321   1.084       .  S
C317        C318   1.418       .  A
C318        S322   1.802       .  S
C319        C324   1.410   1_556  A
C319        C328   1.401       .  A
S320        H336   1.406       .  S
S322        H333   1.408       .  S
C324        C325   1.403       .  A
C324        S329   1.806       .  S
C325        C326   1.403   1_554  A
C325        H330   1.082       .  S
C326        C327   1.409       .  A
C327        C328   1.400       .  A
C327        S331   1.802       .  S
C328        H332   1.082       .  S
S329        H334   1.407       .  S
S331        H335   1.406       .  S
C337        C342   1.401       .  A
C337        C866   1.401   1_554  A
C337        H347   1.084       .  S
C338        C343   1.480       .  S
C338        C339   1.409   1_554  A
C338        C865   1.403       .  A
C339        C340   1.395       .  A
C339        S344   1.803       .  S
C340        C341   1.403       .  A
C340        H345   1.081       .  S
C341        C870   1.416   1_556  A
C342        C869   1.418   1_554  A
C342        S346   1.807       .  S
C343        C348   1.408       .  A
C343        C880   1.400   1_544  A
S344        H360   1.406       .  S
S346        H357   1.399       .  S
C348        C349   1.405       .  A
C348        S353   1.807       .  S
C349        C350   1.408       .  A
C349        H354   1.082       .  S
C350        C879   1.418   1_544  A
C351        C352   1.399       .  A
C351        C878   1.417       .  A
C351        S355   1.803       .  S
C352        C871   1.400       .  A
C352        H356   1.084       .  S
S353        H358   1.407       .  S
S355        H359   1.408       .  S
C361        C366   1.400       .  A
C361        C890   1.402   1_556  A
C361        H371   1.084       .  S
C362        C367   1.485       .  S
C362        C363   1.413   1_545  A
C362        C889   1.403   1_554  A
C363        C364   1.401       .  A
C363        S368   1.803       .  S
C364        C893   1.404   1_564  A
C364        H369   1.084       .  S
C365        C366   1.409       .  A
C365        C892   1.403   1_556  A
C366        S370   1.801       .  S
C367        C372   1.409       .  A
C367        C904   1.401   1_545  A
S368        H384   1.406   1_565  S
S370        H381   1.406       .  S
C372        C373   1.404       .  A
C372        S377   1.809   1_554  S
C373        C374   1.409   1_545  A
C373        H378   1.082   1_554  S
C374        C903   1.421       .  A
C375        C376   1.399       .  A
C375        C902   1.419       .  A
C375        S379   1.802       .  S
C376        C895   1.400       .  A
C376        H380   1.084       .  S
S377        H382   1.406       .  S
S379        H383   1.408       .  S
C385        C386   1.398   1_455  A
C385        C390   1.399       .  A
C385        H395   1.085       .  S
C386        C391   1.477       .  S
C386       C1443   1.409       .  A
C387        C388   1.398       .  A
C387       C1442   1.409       .  A
C387        S392   1.808       .  S
C388        C389   1.410       .  A
C388        H393   1.084       .  S
C389       C1446   1.422       .  A
C390       C1445   1.423       .  A
C390        S394   1.801       .  S
C391        C396   1.406       .  A
C391       C1456   1.401       .  A
S392        H408   1.404       .  S
S394        H405   1.405       .  S
C396        C397   1.400       .  A
C396        S401   1.806       .  S
C397       C1454   1.404       .  A
C397        H402   1.080       .  S
C398        C399   1.416       .  A
C398       C1453   1.403       .  A
C399        C400   1.399       .  A
C399        S403   1.807       .  S
C400       C1447   1.401       .  A
C400        H404   1.084       .  S
S401        H406   1.407       .  S
S403        H407   1.401       .  S
C409        C414   1.399       .  A
C409       C1466   1.402       .  A
C409        H419   1.084       .  S
C410       C1471   1.473       .  S
C410        C411   1.409       .  A
C410       C1465   1.401       .  A
C411        C412   1.394       .  A
C411        S416   1.804       .  S
C412        C413   1.403       .  A
C412        H417   1.083       .  S
C413       C1470   1.415       .  A
C414       C1469   1.414       .  A
C414        S418   1.807       .  S
C415       C1466   1.475       .  S
C415        C420   1.408       .  A
C415       C1480   1.400   1_455  A
S416        H432   1.405       .  S
S418        H429   1.403       .  S
C420        C421   1.403       .  A
C420        S425   1.808       .  S
C421       C1478   1.406       .  A
C421        H426   1.083       .  S
C422        C423   1.417       .  A
C422       C1477   1.405       .  A
C423        C424   1.398       .  A
C423        S427   1.803       .  S
C424       C1471   1.399       .  A
C424        H428   1.084       .  S
S425        H430   1.406       .  S
S427        H431   1.406       .  S
C433        C438   1.398       .  A
C433       C1490   1.402   1_455  A
C433        H443   1.083       .  S
C434        C439   1.477       .  S
C434        C435   1.411       .  A
C434       C1489   1.401       .  A
C435        C436   1.398       .  A
C435        S440   1.805       .  S
C436        C437   1.405       .  A
C436        H441   1.083       .  S
C437       C1494   1.415       .  A
C438       C1493   1.414       .  A
C438        S442   1.801       .  S
C439        C444   1.409       .  A
C439       C1504   1.401       .  A
S440        H456   1.405       .  S
S442        H453   1.407       .  S
C444        C445   1.401       .  A
C444        S449   1.807       .  S
C445        C446   1.405       .  A
C445        H450   1.083       .  S
C446       C1067   1.478       .  S
C446       C1503   1.416       .  A
C447        C448   1.397       .  A
C447       C1502   1.415   1_455  A
C447        S451   1.803       .  S
C448       C1495   1.401   1_455  A
C448        H452   1.085       .  S
S449        H454   1.407       .  S
S451        H455   1.408       .  S
C457        C462   1.399       .  A
C457       C1514   1.402       .  A
C457        H467   1.084       .  S
C458        C463   1.478       .  S
C458        C459   1.411       .  A
C458       C1513   1.401   1_455  A
C459        C460   1.400       .  A
C459        S464   1.804       .  S
C460       C1517   1.405       .  A
C460        H465   1.084       .  S
C461       C1068   1.481       .  S
C461        C462   1.415       .  A
C461       C1516   1.406       .  A
C462        S466   1.803       .  S
C463        C472   1.401       .  A
C463       C1524   1.409   1_455  A
S464        H480   1.405       .  S
S466        H477   1.408       .  S
C468        C469   1.403       .  A
C468       C1519   1.410       .  A
C468        S473   1.807       .  S
C469        C470   1.405       .  A
C469        H474   1.083       .  S
C470       C1527   1.415       .  A
C471        C472   1.399       .  A
C471       C1526   1.415       .  A
C471        S475   1.803       .  S
C472        H476   1.084       .  S
S473        H478   1.407       .  S
S475        H479   1.407       .  S
C481        C482   1.401       .  A
C481        C486   1.400       .  A
C481        H491   1.083       .  S
C482        C487   1.478       .  S
C482       C1539   1.410   1_456  A
C483        C484   1.397       .  A
C483       C1538   1.410   1_554  A
C483        S488   1.803       .  S
C484        C485   1.404   1_554  A
C484        H489   1.082       .  S
C485       C1542   1.417       .  A
C486       C1541   1.418   1_455  A
C486        S490   1.808       .  S
C487        C492   1.408   1_556  A
C487       C1552   1.400   1_455  A
S488        H504   1.405       .  S
S490        H501   1.403       .  S
C492        C493   1.405       .  A
C492        S497   1.807       .  S
C493       C1550   1.407   1_554  A
C493        H498   1.083       .  S
C494       C1069   1.481       .  S
C494        C495   1.417       .  A
C494       C1549   1.406   1_556  A
C495        C496   1.398       .  A
C495        S499   1.803       .  S
C496       C1543   1.400       .  A
C496        H500   1.084       .  S
S497        H502   1.407       .  S
S499        H503   1.407       .  S
C505        C506   1.402   1_556  A
C505        C510   1.400       .  A
C505        H515   1.085       .  S
C506        C511   1.480       .  S
C506       C1563   1.411       .  A
C507        C508   1.398       .  A
C507       C1562   1.410   1_654  A
C507        S512   1.803       .  S
C508       C1565   1.405   1_654  A
C508        H513   1.083       .  S
C509        C510   1.417       .  A
C509       C1564   1.404   1_556  A
C510        S514   1.807       .  S
C511        C516   1.409   1_554  A
C511       C1576   1.402       .  A
S512        H528   1.405       .  S
S514        H525   1.402       .  S
C516        C517   1.402       .  A
C516        S521   1.808       .  S
C517        C518   1.406   1_556  A
C517        H522   1.083       .  S
C518       C1070   1.479       .  S
C518       C1575   1.415       .  A
C519        C520   1.401       .  A
C519       C1574   1.418       .  A
C519        S523   1.802       .  S
C520       C1567   1.401   1_454  A
C520        H524   1.084       .  S
S521        H526   1.407       .  S
S523        H527   1.408       .  S
O529       Cu537   2.008   1_556  S
O529        C539   1.278   1_455  A
O530       Cu537   2.010       .  S
O530        C540   1.278   1_455  A
O531       Cu537   2.007   1_556  S
O531        C541   1.278   1_455  A
O532       Cu537   2.003       .  S
O532        C542   1.277   1_455  A
O533       Cu538   2.011       .  S
O533       C1598   1.278       .  A
O534       Cu538   2.004       .  S
O534       C1597   1.277       .  A
O535       Cu538   2.009   1_554  S
O535       C1596   1.278       .  A
O536       Cu538   2.009       .  S
O536       C1595   1.278       .  A
Cu537     Cu1594   2.372   1_455  S
Cu538     Cu1593   2.371       .  S
C539       O1592   1.277       .  A
C539       C2030   1.477       .  S
C540       O1591   1.278       .  A
C540       C2045   1.481   1_655  S
C541       O1590   1.277       .  A
C541       C2078   1.480       .  S
C542       O1589   1.278       .  A
C542       C2102   1.477       .  S
O543       Cu551   2.009       .  S
O543        C553   1.278       .  A
O544       Cu551   2.012       .  S
O544        C554   1.279       .  A
O545       Cu551   2.004       .  S
O545        C555   1.278       .  A
O546       Cu551   2.010       .  S
O546        C556   1.278       .  A
O547       Cu552   2.008       .  S
O547       C1612   1.278       .  A
O548       Cu552   2.011       .  S
O548       C1611   1.278       .  A
O549       Cu552   2.010       .  S
O549       C1610   1.276       .  A
O550       Cu552   2.010       .  S
O550       C1609   1.278       .  A
Cu551     Cu1608   2.369       .  S
Cu552     Cu1607   2.369   1_455  S
C553       O1606   1.278       .  A
C553        C950   1.480       .  S
C554       O1605   1.276       .  A
C554        C917   1.495       .  S
C555       O1604   1.277       .  A
C555        C965   1.479       .  S
C556       O1603   1.277       .  A
C556        C998   1.477       .  S
C557        C854   1.487       .  S
C557        C558   1.418       .  A
C557        C562   1.414   1_565  A
C558       C1037   1.492       .  S
C558       C1087   1.418   1_565  A
C559        C869   1.489       .  S
C559       C1086   1.416       .  A
C559        C560   1.417       .  A
C560        C830   1.488       .  S
C560       C1617   1.416       .  A
C561       C1013   1.492       .  S
C561       C1616   1.415       .  A
C562        C893   1.494       .  S
C563        C734   1.482       .  S
C563       C1624   1.412   1_455  A
C564        C782   1.492       .  S
C564       C1621   1.415   1_455  A
C565        C941   1.486       .  S
C565       C1620   1.415       .  A
C565        C566   1.415       .  A
C566        C749   1.485       .  S
C566        C567   1.414       .  A
C567        C806   1.487       .  S
C568        C926   1.489       .  S
C568       C1619   1.412       .  A
O569       Cu577   2.008   1_554  S
O569        C579   1.278       .  A
O570       Cu577   2.012       .  S
O570        C580   1.279       .  A
O571       Cu577   2.008   1_554  S
O571        C581   1.278       .  A
O572       Cu577   2.013       .  S
O572        C582   1.279       .  A
O573       Cu578   2.011   1_556  S
O574       Cu578   2.009       .  S
O575       Cu578   2.009       .  S
O576       Cu578   2.014       .  S
C579        C902   1.488       .  S
C580        C878   1.485       .  S
C581        C710   1.483       .  S
C582        C686   1.479       .  S
O583       Cu591   2.004       .  S
O584       Cu591   2.009       .  S
O585       Cu591   2.008       .  S
O586       Cu591   2.012       .  S
O587       Cu592   2.004       .  S
O587        C596   1.277   1_565  A
O588       Cu592   2.007       .  S
O588        C595   1.277   1_565  A
O589       Cu592   2.008       .  S
O589        C594   1.278   1_565  A
O590       Cu592   2.007       .  S
O590        C593   1.279   1_565  A
C593        C797   1.490       .  S
C594        C773   1.485       .  S
C595        C677   1.482   1_545  S
C596        C701   1.475       .  S
O597       Cu605   2.006       .  S
O597        C607   1.277       .  A
O598       Cu605   2.004   1_554  S
O598        C608   1.278       .  A
O599       Cu605   2.009       .  S
O599        C609   1.278       .  A
O600       Cu605   2.009       .  S
O600        C610   1.278       .  A
O601       Cu606   2.006       .  S
O601        C610   1.278       .  A
O602       Cu606   2.008       .  S
O602        C609   1.278       .  A
O603       Cu606   2.009   1_554  S
O603        C608   1.278       .  A
O604       Cu606   2.005       .  S
O604        C607   1.278       .  A
Cu605      Cu606   2.371       .  S
C607        C629   1.479       .  S
C608        C653   1.479       .  S
C609        C821   1.480       .  S
C610        C845   1.485       .  S
O611       Cu619   2.008       .  S
O611        C621   1.278       .  A
O612       Cu619   2.010       .  S
O612        C622   1.278       .  A
O613       Cu619   2.000       .  S
O613        C623   1.276       .  A
O614       Cu619   2.004       .  S
O614        C624   1.278       .  A
O615       Cu620   2.013       .  S
O615        C624   1.277       .  A
O616       Cu620   2.014       .  S
O616        C623   1.279       .  A
O617       Cu620   2.005       .  S
O617        C622   1.277       .  A
O618       Cu620   2.002       .  S
O618        C621   1.277       .  A
Cu619      Cu620   2.369       .  S
C621        C638   1.476       .  S
C622        C662   1.480       .  S
C623        C758   1.482       .  S
C624        C725   1.493       .  S
C625        C626   1.402       .  A
C625        C630   1.398       .  A
C625        H635   1.084       .  S
C626        C631   1.477       .  S
C626        C627   1.411       .  A
C627        C628   1.398       .  A
C627        S632   1.805       .  S
C628        C629   1.406       .  A
C628        H633   1.084       .  S
C629        C630   1.415       .  A
C630        S634   1.803       .  S
C631        C636   1.408       .  A
C631        C640   1.401       .  A
S632        H648   1.405       .  S
S634        H645   1.408       .  S
C636        C637   1.402       .  A
C636        S641   1.807       .  S
C637        C638   1.405       .  A
C637        H642   1.083       .  S
C638        C639   1.415       .  A
C639        C640   1.398       .  A
C639        S643   1.803       .  S
C640        H644   1.084       .  S
S641        H646   1.407       .  S
S643        H647   1.407       .  S
C649        C650   1.402       .  A
C649        C654   1.400       .  A
C649        H659   1.084       .  S
C650        C655   1.479       .  S
C650        C651   1.412       .  A
C651        C652   1.398       .  A
C651        S656   1.805       .  S
C652        C653   1.405       .  A
C652        H657   1.084       .  S
C653        C654   1.416       .  A
C654        S658   1.803       .  S
C655        C660   1.409       .  A
C655        C664   1.400       .  A
S656        H672   1.405       .  S
S658        H669   1.408       .  S
C660        C661   1.403       .  A
C660        S665   1.807       .  S
C661        C662   1.405       .  A
C661        H666   1.083       .  S
C662        C663   1.416       .  A
C663        C664   1.398       .  A
C663        S667   1.802       .  S
C664        H668   1.084       .  S
S665        H670   1.407       .  S
S667        H671   1.407       .  S
C673        C678   1.401       .  A
C673        H683   1.083       .  S
C674        C679   1.478       .  S
C674        C675   1.411       .  A
C675        C676   1.398       .  A
C675        S680   1.804       .  S
C676        H681   1.083       .  S
C677        C678   1.417       .  A
C678        S682   1.803       .  S
C679        C688   1.401       .  A
S680        H696   1.405       .  S
S682        H693   1.408       .  S
C684        C685   1.404       .  A
C684        S689   1.806       .  S
C685        H690   1.083       .  S
C686        C687   1.415       .  A
C687        C688   1.398       .  A
C687        S691   1.803       .  S
C688        H692   1.084       .  S
S689        H694   1.407       .  S
S691        H695   1.408       .  S
C697        C702   1.397       .  A
C697        H707   1.084       .  S
C698        C703   1.477       .  S
C698        C699   1.411       .  A
C699        C700   1.400       .  A
C699        S704   1.804       .  S
C700        H705   1.084       .  S
C701        C702   1.413   1_545  A
C702        S706   1.804       .  S
C703        C712   1.401       .  A
S704        H720   1.406       .  S
S706        H717   1.406       .  S
C708        C709   1.401       .  A
C708        S713   1.807       .  S
C709        H714   1.083       .  S
C710        C711   1.417       .  A
C711        C712   1.399       .  A
C711        S715   1.802       .  S
C712        H716   1.084       .  S
S713        H718   1.407       .  S
S715        H719   1.408       .  S
C721        C722   1.399       .  A
C721        C726   1.400       .  A
C721        H731   1.084       .  S
C722        C727   1.473       .  S
C722        C723   1.408       .  A
C723        C724   1.397       .  A
C723        S728   1.808       .  S
C724        C725   1.411       .  A
C724        H729   1.083       .  S
C725        C726   1.422       .  A
C726        S730   1.801       .  S
C727        C732   1.407       .  A
C727        C736   1.400       .  A
S728        H744   1.405       .  S
S730        H741   1.406       .  S
C732        C733   1.398       .  A
C732        S737   1.806       .  S
C733        C734   1.402       .  A
C733        H738   1.081       .  S
C734        C735   1.415       .  A
C735        C736   1.398       .  A
C735        S739   1.807       .  S
C736        H740   1.084       .  S
S737        H742   1.407       .  S
S739        H743   1.400       .  S
C745        C746   1.401       .  A
C745        C750   1.398       .  A
C745        H755   1.084       .  S
C746        C751   1.477       .  S
C746        C747   1.411       .  A
C747        C748   1.398       .  A
C747        S752   1.804       .  S
C748        C749   1.403       .  A
C748        H753   1.083       .  S
C749        C750   1.414       .  A
C750        S754   1.807       .  S
C751        C756   1.408       .  A
C751        C760   1.400       .  A
S752        H768   1.405       .  S
S754        H765   1.402       .  S
C756        C757   1.403       .  A
C756        S761   1.806       .  S
C757        C758   1.407       .  A
C757        H762   1.083       .  S
C758        C759   1.417       .  A
C759        C760   1.398       .  A
C759        S763   1.803       .  S
C760        H764   1.084       .  S
S761        H766   1.406       .  S
S763        H767   1.408       .  S
C769        C774   1.399       .  A
C769        H779   1.084       .  S
C770        C775   1.479       .  S
C770        C771   1.411       .  A
C771        C772   1.400       .  A
C771        S776   1.806       .  S
C772        C773   1.407   1_565  A
C772        H777   1.084       .  S
C774        S778   1.803       .  S
C775        C784   1.400       .  A
S776        H792   1.405       .  S
S778        H789   1.407       .  S
C780        C781   1.401       .  A
C780        S785   1.806       .  S
C781        H786   1.081       .  S
C782        C783   1.418       .  A
C783        C784   1.400       .  A
C783        S787   1.807       .  S
C784        H788   1.084       .  S
S785        H790   1.407       .  S
S787        H791   1.398       .  S
C793        C798   1.398       .  A
C793        H803   1.083       .  S
C794        C799   1.476       .  S
C794        C795   1.410       .  A
C795        C796   1.398       .  A
C795        S800   1.807       .  S
C796        C797   1.408   1_565  A
C796        H801   1.084       .  S
C798        S802   1.802       .  S
C799        C804   1.407   1_565  A
S800        H816   1.404       .  S
S802        H813   1.408       .  S
C804        C805   1.399       .  A
C804        S809   1.805       .  S
C805        C806   1.402   1_545  A
C805        H810   1.082       .  S
C807        C808   1.401       .  A
C807        S811   1.805       .  S
C808        H812   1.083       .  S
S809        H814   1.407       .  S
S811        H815   1.406       .  S
C817        C818   1.402   1_554  A
C817        C822   1.399       .  A
C817        H827   1.085       .  S
C818        C823   1.480       .  S
C818        C819   1.413       .  A
C819        C820   1.399       .  A
C819        S824   1.806       .  S
C820        C821   1.405       .  A
C820        H825   1.084       .  S
C821        C822   1.415   1_556  A
C822        S826   1.803       .  S
C823        C828   1.409       .  A
C823        C832   1.402   1_556  A
S824        H840   1.405       .  S
S826        H837   1.407       .  S
C828        C829   1.400       .  A
C828        S833   1.807       .  S
C829        C830   1.403       .  A
C829        H834   1.081       .  S
C830        C831   1.415   1_556  A
C831        C832   1.399       .  A
C831        S835   1.807       .  S
C832        H836   1.084       .  S
S833        H838   1.407       .  S
S835        H839   1.398       .  S
C841        C842   1.402       .  A
C841        C846   1.399       .  A
C841        H851   1.084       .  S
C842        C847   1.480       .  S
C842        C843   1.412       .  A
C843        C844   1.399       .  A
C843        S848   1.806   1_556  S
C844        C845   1.407       .  A
C844        H849   1.083   1_556  S
C845        C846   1.417       .  A
C846        S850   1.803       .  S
C847        C852   1.411   1_556  A
C847        C856   1.402       .  A
S848        H864   1.406   1_554  S
S850        H861   1.408       .  S
C852        C853   1.401       .  A
C852        S857   1.806       .  S
C853        C854   1.402   1_554  A
C853        H858   1.083       .  S
C854        C855   1.409       .  A
C855        C856   1.400       .  A
C855        S859   1.802       .  S
C856        H860   1.083       .  S
S857        H862   1.407       .  S
S859        H863   1.407       .  S
C865        C870   1.402       .  A
C865        H875   1.084   1_545  S
C866        C871   1.478       .  S
C866        C867   1.409       .  A
C867        C868   1.395       .  A
C867        S872   1.804       .  S
C868        C869   1.403       .  A
C868        H873   1.082       .  S
C870        S874   1.806   1_545  S
C871        C876   1.407   1_556  A
S872        H888   1.405       .  S
S874        H885   1.399       .  S
C876        C877   1.404       .  A
C876        S881   1.807       .  S
C877        C878   1.408   1_554  A
C877        H882   1.082       .  S
C879        C880   1.398       .  A
C879        S883   1.803       .  S
C880        H884   1.084       .  S
S881        H886   1.407       .  S
S883        H887   1.408       .  S
C889        C894   1.403       .  A
C889        H899   1.083       .  S
C890        C895   1.481       .  S
C890        C891   1.413       .  A
C891        C892   1.399       .  A
C891        S896   1.803       .  S
C892        H897   1.084       .  S
C893        C894   1.409       .  A
C894        S898   1.801       .  S
C895        C900   1.409   1_554  A
S896        H912   1.406       .  S
S898        H909   1.406       .  S
C900        C901   1.403       .  A
C900        S905   1.809       .  S
C901        C902   1.408   1_556  A
C901        H906   1.082       .  S
C903        C904   1.402       .  A
C903        S907   1.802       .  S
C904        H908   1.083       .  S
S905        H910   1.406       .  S
S907        H911   1.408       .  S
C913        C914   1.399   1_455  A
C913        C918   1.400       .  A
C913        H923   1.085       .  S
C914        C919   1.477       .  S
C914       C1971   1.409       .  A
C915       C1970   1.409       .  A
C915        C916   1.400       .  A
C915        S920   1.805       .  S
C916        C917   1.410       .  A
C916        H921   1.083       .  S
C917       C1974   1.422       .  A
C918       C1973   1.423       .  A
C918        S922   1.801       .  S
C919        C924   1.407       .  A
C919       C1984   1.401   1_655  A
S920        H936   1.405       .  S
S922        H933   1.407       .  S
C924        C925   1.400       .  A
C924        S929   1.806       .  S
C925       C1982   1.403       .  A
C925        H930   1.081       .  S
C926       C1981   1.404       .  A
C926        C927   1.416       .  A
C927        C928   1.400       .  A
C927        S931   1.807       .  S
C928       C1975   1.401       .  A
C928        H932   1.084       .  S
S929        H934   1.407       .  S
S931        H935   1.401       .  S
C937       C1994   1.402   1_455  A
C937        C942   1.399       .  A
C937        H947   1.084       .  S
C938       C1999   1.480       .  S
C938       C1993   1.402       .  A
C938        C939   1.412       .  A
C939        C940   1.397       .  A
C939        S944   1.804       .  S
C940        C941   1.403       .  A
C940        H945   1.083       .  S
C941       C1998   1.414       .  A
C942       C1997   1.415   1_455  A
C942        S946   1.805       .  S
C943       C1994   1.475       .  S
C943        C948   1.409   1_655  A
C943       C2008   1.399       .  A
S944        H960   1.405       .  S
S946        H957   1.404       .  S
C948        C949   1.403       .  A
C948        S953   1.807       .  S
C949       C2006   1.405   1_455  A
C949        H954   1.083       .  S
C950       C2005   1.405       .  A
C950        C951   1.415       .  A
C951        C952   1.398       .  A
C951        S955   1.803       .  S
C952       C1999   1.401       .  A
C952        H956   1.084       .  S
S953        H958   1.406       .  S
S955        H959   1.407       .  S
C961       C2018   1.401   1_455  A
C961        C966   1.399       .  A
C961        H971   1.083       .  S
C962        C967   1.479       .  S
C962       C2017   1.402       .  A
C962        C963   1.412       .  A
C963        C964   1.398       .  A
C963        S968   1.805       .  S
C964        C965   1.405       .  A
C964        H969   1.083       .  S
C965       C2022   1.416       .  A
C966       C2021   1.415   1_455  A
C966        S970   1.802       .  S
C967        C972   1.410       .  A
C967       C2032   1.400       .  A
S968        H984   1.405       .  S
S970        H981   1.407       .  S
C972        C973   1.402       .  A
C972        S977   1.807       .  S
C973        C974   1.406       .  A
C973        H978   1.083       .  S
C974       C1595   1.479       .  S
C974       C2031   1.416       .  A
C975       C2030   1.414   1_455  A
C975        C976   1.398       .  A
C975        S979   1.803       .  S
C976       C2023   1.401   1_455  A
C976        H980   1.085       .  S
S977        H982   1.407       .  S
S979        H983   1.407       .  S
C985       C2042   1.401       .  A
C985        C990   1.398       .  A
C985        H995   1.084       .  S
C986        C991   1.479       .  S
C986       C2041   1.401   1_455  A
C986        C987   1.411       .  A
C987        C988   1.400       .  A
C987        S992   1.804       .  S
C988       C2045   1.406       .  A
C988        H993   1.084       .  S
C989       C1596   1.479       .  S
C989       C2044   1.406       .  A
C989        C990   1.415       .  A
C990        S994   1.803       .  S
C991       C2052   1.409   1_455  A
C991       C1000   1.402       .  A
S992       H1008   1.406       .  S
S994       H1005   1.408       .  S
C996       C2047   1.409       .  A
C996        C997   1.403       .  A
C996       S1001   1.807       .  S
C997        C998   1.405       .  A
C997       H1002   1.083       .  S
C998       C2055   1.415       .  A
C999       C2054   1.415       .  A
C999       C1000   1.399       .  A
C999       S1003   1.803       .  S
C1000      H1004   1.084       .  S
S1001      H1006   1.407       .  S
S1003      H1007   1.407       .  S
C1009      C1010   1.401   1_455  A
C1009      C1014   1.399       .  A
C1009      H1019   1.083       .  S
C1010      C1015   1.476       .  S
C1010      C2067   1.410   1_556  A
C1011      C2066   1.410   1_554  A
C1011      C1012   1.397       .  A
C1011      S1016   1.804       .  S
C1012      C1013   1.405   1_554  A
C1012      H1017   1.081       .  S
C1013      C2070   1.417       .  A
C1014      C2069   1.417   1_455  A
C1014      S1018   1.807       .  S
C1015      C1020   1.408   1_656  A
C1015      C2080   1.400       .  A
S1016      H1032   1.405       .  S
S1018      H1029   1.402       .  S
C1020      C1021   1.402       .  A
C1020      S1025   1.807       .  S
C1021      C2078   1.406   1_454  A
C1021      H1026   1.082       .  S
C1022      C1597   1.483       .  S
C1022      C2077   1.407   1_556  A
C1022      C1023   1.417       .  A
C1023      C1024   1.398       .  A
C1023      S1027   1.803       .  S
C1024      C2071   1.399       .  A
C1024      H1028   1.084       .  S
S1025      H1030   1.407       .  S
S1027      H1031   1.407       .  S
C1033      C1034   1.402       .  A
C1033      C1038   1.402       .  A
C1033      H1043   1.084       .  S
C1034      C1039   1.481       .  S
C1034      C2091   1.409   1_556  A
C1035      C2090   1.410       .  A
C1035      C1036   1.396       .  A
C1035      S1040   1.804       .  S
C1036      C2093   1.404   1_654  A
C1036      H1041   1.083       .  S
C1037      C2092   1.404   1_556  A
C1037      C1038   1.417       .  A
C1038      S1042   1.807       .  S
C1039      C1044   1.409       .  A
C1039      C2104   1.401   1_556  A
S1040      H1056   1.406       .  S
S1042      H1053   1.402       .  S
C1044      C1045   1.405       .  A
C1044      S1049   1.807       .  S
C1045      C1046   1.408       .  A
C1045      H1050   1.082       .  S
C1046      C1598   1.485       .  S
C1046      C2103   1.416   1_556  A
C1047      C2102   1.415   1_455  A
C1047      C1048   1.399       .  A
C1047      S1051   1.803       .  S
C1048      C2095   1.401   1_455  A
C1048      H1052   1.084       .  S
S1049      H1054   1.407       .  S
S1051      H1055   1.407       .  S
O1057     Cu1065   2.006   1_556  S
O1057      C1067   1.278       .  A
O1058     Cu1065   2.009       .  S
O1058      C1068   1.278       .  A
O1059     Cu1065   2.012   1_556  S
O1059      C1069   1.279       .  A
O1060     Cu1065   2.011       .  S
O1060      C1070   1.278       .  A
O1061     Cu1066   2.018   1_554  S
O1062     Cu1066   2.012       .  S
O1063     Cu1066   2.005   1_554  S
O1064     Cu1066   2.003       .  S
O1071     Cu1079   2.009       .  S
O1071      C1081   1.278   1_655  A
O1072     Cu1079   2.014       .  S
O1072      C1082   1.280   1_655  A
O1073     Cu1079   2.000       .  S
O1073      C1083   1.277   1_655  A
O1074     Cu1079   2.006       .  S
O1074      C1084   1.277   1_655  A
O1075     Cu1080   2.004       .  S
O1076     Cu1080   2.005       .  S
O1077     Cu1080   2.010       .  S
O1078     Cu1080   2.006       .  S
C1081      C1478   1.480       .  S
C1082      C1445   1.493       .  S
C1083      C1493   1.480       .  S
C1084      C1526   1.478       .  S
C1085      C1382   1.482       .  S
C1085      C1086   1.417   1_655  A
C1085      C1090   1.414       .  A
C1086      C1565   1.494       .  S
C1087      C1397   1.491       .  S
C1087      C1088   1.418       .  A
C1088      C1358   1.491       .  S
C1089      C1541   1.491       .  S
C1089      C1618   1.416       .  A
C1090      C1421   1.495       .  S
C1090      C1617   1.414   1_655  A
C1091      C1262   1.485       .  S
C1091      C1620   1.413   1_545  A
C1092      C1310   1.493       .  S
C1092      C1619   1.415       .  A
C1093      C1469   1.483   1_655  S
C1093      C1094   1.414       .  A
C1094      C1277   1.486       .  S
C1094      C1095   1.413       .  A
C1095      C1334   1.485       .  S
C1095      C1624   1.412       .  A
C1096      C1454   1.488       .  S
C1096      C1623   1.413   1_545  A
O1097     Cu1105   2.012       .  S
O1097      C1107   1.279       .  A
O1098     Cu1105   2.014       .  S
O1098      C1108   1.279   1_554  A
O1099     Cu1105   2.009       .  S
O1099      C1109   1.278       .  A
O1100     Cu1105   2.014   1_556  S
O1100      C1110   1.279       .  A
O1101     Cu1106   2.010   1_556  S
O1101      C1638   1.278       .  A
O1102     Cu1106   2.007       .  S
O1102      C1637   1.278       .  A
O1103     Cu1106   2.012       .  S
O1103      C1636   1.278       .  A
O1104     Cu1106   2.018       .  S
O1104      C1635   1.279       .  A
Cu1105    Cu1634   2.369   1_545  S
Cu1106    Cu1633   2.369       .  S
C1107      O1632   1.277   1_545  A
C1107      C1430   1.489       .  S
C1108      O1631   1.278   1_546  A
C1108      C1406   1.484       .  S
C1109      O1630   1.277   1_545  A
C1109      C1238   1.482       .  S
C1110      O1629   1.277   1_545  A
C1110      C1214   1.481       .  S
O1111     Cu1119   2.002       .  S
O1111      C1649   1.275       .  A
O1112     Cu1119   2.005       .  S
O1112      C1650   1.277       .  A
O1113     Cu1119   2.006       .  S
O1113      C1651   1.278       .  A
O1114     Cu1119   2.010       .  S
O1114      C1652   1.278       .  A
O1115     Cu1120   2.006       .  S
O1115      C1124   1.277       .  A
O1116     Cu1120   2.010       .  S
O1116      C1123   1.278       .  A
O1117     Cu1120   2.003       .  S
O1117      C1122   1.277       .  A
O1118     Cu1120   2.001       .  S
O1118      C1121   1.278       .  A
Cu1119    Cu1648   2.369   1_545  S
Cu1120    Cu1647   2.370       .  S
C1121      O1639   1.277       .  A
C1121      C1325   1.491       .  S
C1122      O1640   1.279       .  A
C1122      C1301   1.482       .  S
C1123      O1641   1.278       .  A
C1123      C1205   1.481       .  S
C1124      O1642   1.277       .  A
C1124      C1229   1.474       .  S
O1125     Cu1133   2.001   1_556  S
O1125      C1135   1.277       .  A
O1126     Cu1133   1.998       .  S
O1126      C1136   1.276       .  A
O1127     Cu1133   2.008       .  S
O1127      C1137   1.278       .  A
O1128     Cu1133   2.005       .  S
O1128      C1138   1.277       .  A
O1129     Cu1134   2.004       .  S
O1129      C1138   1.278       .  A
O1130     Cu1134   2.010       .  S
O1130      C1137   1.278       .  A
O1131     Cu1134   2.013       .  S
O1131      C1136   1.279       .  A
O1132     Cu1134   2.011   1_556  S
O1132      C1135   1.278       .  A
Cu1133    Cu1134   2.371       .  S
C1135      C1157   1.480       .  S
C1136      C1181   1.476       .  S
C1137      C1349   1.481       .  S
C1138      C1373   1.482   1_554  S
O1139     Cu1147   2.013       .  S
O1139      C1149   1.279       .  A
O1140     Cu1147   2.013       .  S
O1140      C1150   1.279       .  A
O1141     Cu1147   1.999       .  S
O1141      C1151   1.276       .  A
O1142     Cu1147   2.001       .  S
O1142      C1152   1.278       .  A
O1143     Cu1148   2.016       .  S
O1143      C1152   1.278       .  A
O1144     Cu1148   2.012       .  S
O1144      C1151   1.279       .  A
O1145     Cu1148   1.997       .  S
O1145      C1150   1.276       .  A
O1146     Cu1148   1.995       .  S
O1146      C1149   1.275       .  A
Cu1147    Cu1148   2.368       .  S
C1149      C1166   1.477       .  S
C1150      C1190   1.482       .  S
C1151      C1286   1.480       .  S
C1152      C1253   1.494       .  S
C1153      C1154   1.401       .  A
C1153      C1158   1.397       .  A
C1153      H1163   1.084       .  S
C1154      C1159   1.478       .  S
C1154      C1155   1.411       .  A
C1155      C1156   1.400       .  A
C1155      S1160   1.804       .  S
C1156      C1157   1.406       .  A
C1156      H1161   1.084       .  S
C1157      C1158   1.416       .  A
C1158      S1162   1.803       .  S
C1159      C1164   1.409       .  A
C1159      C1168   1.401       .  A
S1160      H1176   1.406       .  S
S1162      H1173   1.408       .  S
C1164      C1165   1.402       .  A
C1164      S1169   1.807       .  S
C1165      C1166   1.405       .  A
C1165      H1170   1.082       .  S
C1166      C1167   1.416       .  A
C1167      C1168   1.398       .  A
C1167      S1171   1.804       .  S
C1168      H1172   1.084       .  S
S1169      H1174   1.407       .  S
S1171      H1175   1.408       .  S
C1177      C1178   1.403       .  A
C1177      C1182   1.400       .  A
C1177      H1187   1.084       .  S
C1178      C1183   1.479       .  S
C1178      C1179   1.412       .  A
C1179      C1180   1.397       .  A
C1179      S1184   1.805       .  S
C1180      C1181   1.404       .  A
C1180      H1185   1.084       .  S
C1181      C1182   1.414       .  A
C1182      S1186   1.803       .  S
C1183      C1188   1.409       .  A
C1183      C1192   1.399       .  A
S1184      H1200   1.405       .  S
S1186      H1197   1.407       .  S
C1188      C1189   1.403       .  A
C1188      S1193   1.807       .  S
C1189      C1190   1.406       .  A
C1189      H1194   1.083       .  S
C1190      C1191   1.418       .  A
C1191      C1192   1.397       .  A
C1191      S1195   1.803       .  S
C1192      H1196   1.084       .  S
S1193      H1198   1.407       .  S
S1195      H1199   1.408       .  S
C1201      C1730   1.402       .  A
C1201      C1206   1.401       .  A
C1201      H1211   1.083       .  S
C1202      C1207   1.477       .  S
C1202      C1729   1.402   1_545  A
C1202      C1203   1.411       .  A
C1203      C1204   1.399       .  A
C1203      S1208   1.804       .  S
C1204      C1733   1.404       .  A
C1204      H1209   1.083       .  S
C1205      C1732   1.405       .  A
C1205      C1206   1.416       .  A
C1206      S1210   1.803       .  S
C1207      C1740   1.407   1_545  A
C1207      C1216   1.401       .  A
S1208      H1224   1.406       .  S
S1210      H1221   1.408       .  S
C1212      C1735   1.409       .  A
C1212      C1213   1.405       .  A
C1212      S1217   1.806       .  S
C1213      C1742   1.405       .  A
C1213      H1218   1.083       .  S
C1214      C1741   1.407   1_545  A
C1214      C1215   1.416       .  A
C1215      C1216   1.399       .  A
C1215      S1219   1.802       .  S
C1216      H1220   1.084       .  S
S1217      H1222   1.407       .  S
S1219      H1223   1.408       .  S
C1225      C1754   1.401       .  A
C1225      C1230   1.397       .  A
C1225      H1235   1.084       .  S
C1226      C1231   1.477       .  S
C1226      C1753   1.401   1_545  A
C1226      C1227   1.411       .  A
C1227      C1228   1.400       .  A
C1227      S1232   1.804       .  S
C1228      C1757   1.404       .  A
C1228      H1233   1.084       .  S
C1229      C1756   1.404       .  A
C1229      C1230   1.414       .  A
C1230      S1234   1.804       .  S
C1231      C1764   1.407   1_545  A
C1231      C1240   1.401       .  A
S1232      H1248   1.406       .  S
S1234      H1245   1.404       .  S
C1236      C1759   1.407       .  A
C1236      C1237   1.401       .  A
C1236      S1241   1.807       .  S
C1237      C1766   1.406       .  A
C1237      H1242   1.083       .  S
C1238      C1765   1.407   1_545  A
C1238      C1239   1.416       .  A
C1239      C1240   1.399       .  A
C1239      S1243   1.803       .  S
C1240      H1244   1.084       .  S
S1241      H1246   1.407       .  S
S1243      H1247   1.408       .  S
C1249      C1250   1.399       .  A
C1249      C1254   1.399       .  A
C1249      H1259   1.085       .  S
C1250      C1255   1.473       .  S
C1250      C1251   1.408       .  A
C1251      C1252   1.398       .  A
C1251      S1256   1.809       .  S
C1252      C1253   1.411       .  A
C1252      H1257   1.083       .  S
C1253      C1254   1.421       .  A
C1254      S1258   1.800       .  S
C1255      C1260   1.406       .  A
C1255      C1264   1.400       .  A
S1256      H1272   1.403       .  S
S1258      H1269   1.408       .  S
C1260      C1261   1.398       .  A
C1260      S1265   1.806       .  S
C1261      C1262   1.403       .  A
C1261      H1266   1.081       .  S
C1262      C1263   1.414       .  A
C1263      C1264   1.399       .  A
C1263      S1267   1.805       .  S
C1264      H1268   1.085       .  S
S1265      H1270   1.407       .  S
S1267      H1271   1.400       .  S
C1273      C1274   1.402       .  A
C1273      C1278   1.398       .  A
C1273      H1283   1.084       .  S
C1274      C1279   1.478       .  S
C1274      C1275   1.411       .  A
C1275      C1276   1.397       .  A
C1275      S1280   1.804       .  S
C1276      C1277   1.403       .  A
C1276      H1281   1.083       .  S
C1277      C1278   1.414       .  A
C1278      S1282   1.807       .  S
C1279      C1284   1.409       .  A
C1279      C1288   1.400       .  A
S1280      H1296   1.405       .  S
S1282      H1293   1.402       .  S
C1284      C1285   1.403       .  A
C1284      S1289   1.806       .  S
C1285      C1286   1.406       .  A
C1285      H1290   1.083       .  S
C1286      C1287   1.417       .  A
C1287      C1288   1.398       .  A
C1287      S1291   1.803       .  S
C1288      H1292   1.084       .  S
S1289      H1294   1.407       .  S
S1291      H1295   1.408       .  S
C1297      C1826   1.400   1_545  A
C1297      C1302   1.399       .  A
C1297      H1307   1.084       .  S
C1298      C1303   1.479       .  S
C1298      C1825   1.401       .  A
C1298      C1299   1.411       .  A
C1299      C1300   1.399       .  A
C1299      S1304   1.805       .  S
C1300      C1301   1.406       .  A
C1300      H1305   1.084       .  S
C1301      C1830   1.417       .  A
C1302      C1829   1.418       .  A
C1302      S1306   1.802       .  S
C1303      C1836   1.407       .  A
C1303      C1312   1.400       .  A
S1304      H1320   1.405       .  S
S1306      H1317   1.408       .  S
C1308      C1831   1.405   1_545  A
C1308      C1309   1.397       .  A
C1308      S1313   1.805       .  S
C1309      C1838   1.404   1_545  A
C1309      H1314   1.081       .  S
C1310      C1837   1.405       .  A
C1310      C1311   1.418       .  A
C1311      C1312   1.400       .  A
C1311      S1315   1.807       .  S
C1312      H1316   1.085       .  S
S1313      H1318   1.407       .  S
S1315      H1319   1.399       .  S
C1321      C1850   1.398   1_545  A
C1321      C1326   1.398       .  A
C1321      H1331   1.081       .  S
C1322      C1327   1.473       .  S
C1322      C1849   1.399       .  A
C1322      C1323   1.409       .  A
C1323      C1324   1.397       .  A
C1323      S1328   1.807       .  S
C1324      C1325   1.410       .  A
C1324      H1329   1.084       .  S
C1325      C1854   1.420       .  A
C1326      C1853   1.422       .  A
C1326      S1330   1.801       .  S
C1327      C1332   1.407       .  A
C1327      C1864   1.401       .  A
S1328      H1344   1.403       .  S
S1330      H1341   1.408       .  S
C1332      C1333   1.399       .  A
C1332      S1337   1.806       .  S
C1333      C1334   1.402       .  A
C1333      H1338   1.082       .  S
C1334      C1863   1.410       .  A
C1335      C1862   1.410       .  A
C1335      C1336   1.402       .  A
C1335      S1339   1.804       .  S
C1336      C1855   1.402       .  A
C1336      H1340   1.083       .  S
S1337      H1342   1.407       .  S
S1339      H1343   1.407       .  S
C1345      C1346   1.402       .  A
C1345      C1350   1.399       .  A
C1345      H1355   1.085       .  S
C1346      C1351   1.481   1_554  S
C1346      C1347   1.414   1_554  A
C1347      C1348   1.400       .  A
C1347      S1352   1.807       .  S
C1348      C1349   1.405   1_556  A
C1348      H1353   1.084       .  S
C1349      C1350   1.415       .  A
C1350      S1354   1.803       .  S
C1351      C1356   1.408       .  A
C1351      C1360   1.402   1_556  A
S1352      H1368   1.404       .  S
S1354      H1365   1.407       .  S
C1356      C1357   1.400       .  A
C1356      S1361   1.806       .  S
C1357      C1358   1.404       .  A
C1357      H1362   1.081       .  S
C1358      C1359   1.417   1_556  A
C1359      C1360   1.400       .  A
C1359      S1363   1.807       .  S
C1360      H1364   1.084       .  S
S1361      H1366   1.407       .  S
S1363      H1367   1.399       .  S
C1369      C1370   1.401       .  A
C1369      C1374   1.397       .  A
C1369      H1379   1.084       .  S
C1370      C1375   1.477       .  S
C1370      C1371   1.412   1_556  A
C1371      C1372   1.399       .  A
C1371      S1376   1.807       .  S
C1372      C1373   1.407   1_554  A
C1372      H1377   1.083       .  S
C1373      C1374   1.417       .  A
C1374      S1378   1.803       .  S
C1375      C1380   1.410   1_556  A
C1375      C1384   1.402       .  A
S1376      H1392   1.406       .  S
S1378      H1389   1.408       .  S
C1380      C1381   1.400       .  A
C1380      S1385   1.806       .  S
C1381      C1382   1.402   1_554  A
C1381      H1386   1.083       .  S
C1382      C1383   1.408       .  A
C1383      C1384   1.398       .  A
C1383      S1387   1.802       .  S
C1384      H1388   1.084       .  S
S1385      H1390   1.407       .  S
S1387      H1391   1.406       .  S
C1393      C1922   1.402   1_554  A
C1393      C1398   1.401       .  A
C1393      H1403   1.084       .  S
C1394      C1399   1.481       .  S
C1394      C1921   1.402   1_556  A
C1394      C1395   1.410       .  A
C1395      C1396   1.396       .  A
C1395      S1400   1.804       .  S
C1396      C1397   1.403       .  A
C1396      H1401   1.082       .  S
C1397      C1926   1.417   1_546  A
C1398      C1925   1.416   1_554  A
C1398      S1402   1.806       .  S
C1399      C1404   1.409   1_556  A
C1399      C1936   1.400   1_545  A
S1400      H1416   1.406       .  S
S1402      H1413   1.398       .  S
C1404      C1405   1.405       .  A
C1404      S1409   1.807       .  S
C1405      C1406   1.407   1_554  A
C1405      H1410   1.083       .  S
C1406      C1935   1.417   1_545  A
C1407      C1934   1.418   1_556  A
C1407      C1408   1.399       .  A
C1407      S1411   1.802       .  S
C1408      C1927   1.400   1_556  A
C1408      H1412   1.084       .  S
S1409      H1414   1.407       .  S
S1411      H1415   1.407       .  S
C1417      C1946   1.403   1_556  A
C1417      C1422   1.403       .  A
C1417      H1427   1.083       .  S
C1418      C1423   1.482       .  S
C1418      C1945   1.402   1_554  A
C1418      C1419   1.413   1_545  A
C1419      C1420   1.399       .  A
C1419      S1424   1.803       .  S
C1420      C1949   1.403   1_554  A
C1420      H1425   1.084       .  S
C1421      C1948   1.404   1_556  A
C1421      C1422   1.410       .  A
C1422      S1426   1.801       .  S
C1423      C1428   1.410   1_554  A
C1423      C1960   1.400   1_545  A
S1424      H1440   1.406   1_565  S
S1426      H1437   1.406       .  S
C1428      C1429   1.403       .  A
C1428      S1433   1.809       .  S
C1429      C1430   1.408   1_556  A
C1429      H1434   1.082       .  S
C1430      C1959   1.420   1_545  A
C1431      C1958   1.419       .  A
C1431      C1432   1.402       .  A
C1431      S1435   1.802       .  S
C1432      C1951   1.402       .  A
C1432      H1436   1.083       .  S
S1433      H1438   1.406       .  S
S1435      H1439   1.408       .  S
C1441      C1442   1.400       .  A
C1441      C1446   1.400       .  A
C1441      H1451   1.085       .  S
C1442      C1447   1.476       .  S
C1443      C1444   1.399       .  A
C1443      S1448   1.804       .  S
C1444      C1445   1.409   1_655  A
C1444      H1449   1.084       .  S
C1446      S1450   1.801       .  S
C1447      C1452   1.407       .  A
S1448      H1464   1.404       .  S
S1450      H1461   1.406       .  S
C1452      C1453   1.399       .  A
C1452      S1457   1.805       .  S
C1453      H1458   1.081       .  S
C1454      C1455   1.415       .  A
C1455      C1456   1.400       .  A
C1455      S1459   1.807   1_655  S
C1456      H1460   1.084   1_655  S
S1457      H1462   1.407       .  S
S1459      H1463   1.401       .  S
C1465      C1470   1.399       .  A
C1465      H1475   1.084       .  S
C1466      C1467   1.411   1_455  A
C1467      C1468   1.395       .  A
C1467      S1472   1.805       .  S
C1468      C1469   1.402   1_655  A
C1468      H1473   1.082       .  S
C1470      S1474   1.805       .  S
C1471      C1476   1.407       .  A
S1472      H1488   1.405       .  S
S1474      H1485   1.404       .  S
C1476      C1477   1.401       .  A
C1476      S1481   1.807       .  S
C1477      H1482   1.083       .  S
C1478      C1479   1.416   1_455  A
C1479      C1480   1.397       .  A
C1479      S1483   1.803       .  S
C1480      H1484   1.084       .  S
S1481      H1486   1.406       .  S
S1483      H1487   1.407       .  S
C1489      C1494   1.398       .  A
C1489      H1499   1.083       .  S
C1490      C1495   1.478       .  S
C1490      C1491   1.412       .  A
C1491      C1492   1.399       .  A
C1491      S1496   1.805       .  S
C1492      C1493   1.406   1_655  A
C1492      H1497   1.082       .  S
C1494      S1498   1.802       .  S
C1495      C1500   1.410       .  A
S1496      H1512   1.405       .  S
S1498      H1509   1.407       .  S
C1500      C1501   1.403       .  A
C1500      S1505   1.807       .  S
C1501      C1502   1.406       .  A
C1501      H1506   1.083       .  S
C1503      C1504   1.398       .  A
C1503      S1507   1.803       .  S
C1504      H1508   1.084       .  S
S1505      H1510   1.407       .  S
S1507      H1511   1.408       .  S
C1513      C1518   1.399       .  A
C1513      H1523   1.084       .  S
C1514      C1519   1.481       .  S
C1514      C1515   1.412       .  A
C1515      C1516   1.400       .  A
C1515      S1520   1.804       .  S
C1516      H1521   1.084       .  S
C1517      C1518   1.415   1_455  A
C1518      S1522   1.804       .  S
C1519      C1528   1.401       .  A
S1520      H1536   1.406       .  S
S1522      H1533   1.408       .  S
C1524      C1525   1.403       .  A
C1524      S1529   1.807       .  S
C1525      C1526   1.405   1_655  A
C1525      H1530   1.083       .  S
C1527      C1528   1.399       .  A
C1527      S1531   1.803       .  S
C1528      H1532   1.084       .  S
S1529      H1534   1.407       .  S
S1531      H1535   1.408       .  S
C1537      C1538   1.401       .  A
C1537      C1542   1.399       .  A
C1537      H1547   1.084       .  S
C1538      C1543   1.477       .  S
C1539      C1540   1.397       .  A
C1539      S1544   1.804       .  S
C1540      C1541   1.404   1_554  A
C1540      H1545   1.082       .  S
C1542      S1546   1.808       .  S
C1543      C1548   1.409   1_556  A
S1544      H1560   1.405       .  S
S1546      H1557   1.402       .  S
C1548      C1549   1.403       .  A
C1548      S1553   1.807       .  S
C1549      H1554   1.083       .  S
C1550      C1551   1.417   1_455  A
C1551      C1552   1.399       .  A
C1551      S1555   1.803       .  S
C1552      H1556   1.084       .  S
S1553      H1558   1.407       .  S
S1555      H1559   1.407       .  S
C1561      C1562   1.402       .  A
C1561      C1566   1.402       .  A
C1561      H1571   1.084       .  S
C1562      C1567   1.482   1_455  S
C1563      C1564   1.397       .  A
C1563      S1568   1.804       .  S
C1564      H1569   1.084       .  S
C1565      C1566   1.418       .  A
C1566      S1570   1.807       .  S
C1567      C1572   1.408       .  A
S1568      H1584   1.406       .  S
S1570      H1581   1.402       .  S
C1572      C1573   1.405       .  A
C1572      S1577   1.807       .  S
C1573      C1574   1.408   1_656  A
C1573      H1578   1.083       .  S
C1575      C1576   1.400       .  A
C1575      S1579   1.803       .  S
C1576      H1580   1.084       .  S
S1577      H1582   1.407       .  S
S1579      H1583   1.408       .  S
O1585     Cu1593   2.002       .  S
O1585      C1595   1.277       .  A
O1586     Cu1593   2.002   1_554  S
O1586      C1596   1.277       .  A
O1587     Cu1593   2.017       .  S
O1587      C1597   1.279       .  A
O1588     Cu1593   2.018       .  S
O1588      C1598   1.279       .  A
O1589     Cu1594   2.006       .  S
O1590     Cu1594   2.005   1_556  S
O1591     Cu1594   2.007       .  S
O1592     Cu1594   2.005   1_556  S
O1599     Cu1607   2.004       .  S
O1599      C1609   1.277   1_655  A
O1600     Cu1607   2.009       .  S
O1600      C1610   1.279   1_655  A
O1601     Cu1607   2.003       .  S
O1601      C1611   1.277   1_655  A
O1602     Cu1607   2.006       .  S
O1602      C1612   1.277   1_655  A
O1603     Cu1608   2.003       .  S
O1604     Cu1608   2.005       .  S
O1605     Cu1608   2.010       .  S
O1606     Cu1608   2.011       .  S
C1609      C2006   1.478   1_455  S
C1610      C1973   1.494       .  S
C1611      C2021   1.481   1_455  S
C1612      C2054   1.477       .  S
C1613      C1910   1.489       .  S
C1613      C1614   1.416   1_655  A
C1613      C1618   1.414   1_565  A
C1614      C2093   1.488       .  S
C1615      C1925   1.490       .  S
C1615      C1616   1.415       .  A
C1616      C1886   1.485       .  S
C1617      C2069   1.487   1_455  S
C1618      C1949   1.489   1_545  S
C1619      C1790   1.481       .  S
C1620      C1838   1.488       .  S
C1621      C1997   1.487       .  S
C1621      C1622   1.416       .  A
C1622      C1805   1.489       .  S
C1622      C1623   1.415       .  A
C1623      C1862   1.488       .  S
C1624      C1982   1.487       .  S
O1625     Cu1633   2.010       .  S
O1625      C1635   1.279       .  A
O1626     Cu1633   2.012       .  S
O1626      C1636   1.279       .  A
O1627     Cu1633   2.006       .  S
O1627      C1637   1.277       .  A
O1628     Cu1633   2.009   1_556  S
O1628      C1638   1.278       .  A
O1629     Cu1634   1.999   1_556  S
O1630     Cu1634   2.000       .  S
O1631     Cu1634   2.008       .  S
O1632     Cu1634   2.008       .  S
C1635      C1958   1.492       .  S
C1636      C1934   1.486       .  S
C1637      C1766   1.483       .  S
C1638      C1742   1.478       .  S
O1639     Cu1647   2.013       .  S
O1640     Cu1647   2.016       .  S
O1641     Cu1647   2.013       .  S
O1642     Cu1647   2.010       .  S
O1643     Cu1648   2.002       .  S
O1643      C1652   1.277   1_565  A
O1644     Cu1648   2.007       .  S
O1644      C1651   1.277   1_565  A
O1645     Cu1648   2.008       .  S
O1645      C1650   1.279   1_565  A
O1646     Cu1648   2.007       .  S
O1646      C1649   1.279   1_565  A
C1649      C1853   1.491       .  S
C1650      C1829   1.483       .  S
C1651      C1733   1.477       .  S
C1652      C1757   1.474       .  S
O1653     Cu1661   2.006   1_556  S
O1653      C1663   1.277       .  A
O1654     Cu1661   2.001       .  S
O1654      C1664   1.277       .  A
O1655     Cu1661   2.003       .  S
O1655      C1665   1.277       .  A
O1656     Cu1661   2.011       .  S
O1656      C1666   1.278   1_554  A
O1657     Cu1662   2.004       .  S
O1657      C1666   1.278       .  A
O1658     Cu1662   2.004   1_554  S
O1658      C1665   1.277       .  A
O1659     Cu1662   2.013   1_554  S
O1659      C1664   1.278       .  A
O1660     Cu1662   2.010       .  S
O1660      C1663   1.278       .  A
Cu1661    Cu1662   2.372   1_554  S
C1663      C1685   1.480       .  S
C1664      C1709   1.476       .  S
C1665      C1877   1.475       .  S
C1666      C1901   1.484       .  S
O1667     Cu1675   2.009       .  S
O1667      C1677   1.278       .  A
O1668     Cu1675   2.005       .  S
O1668      C1678   1.278       .  A
O1669     Cu1675   2.006       .  S
O1669      C1679   1.277       .  A
O1670     Cu1675   2.004       .  S
O1670      C1680   1.279       .  A
O1671     Cu1676   2.003       .  S
O1671      C1680   1.276       .  A
O1672     Cu1676   2.009       .  S
O1672      C1679   1.278       .  A
O1673     Cu1676   2.009       .  S
O1673      C1678   1.278       .  A
O1674     Cu1676   2.005       .  S
O1674      C1677   1.277       .  A
Cu1675    Cu1676   2.369       .  S
C1677      C1694   1.478       .  S
C1678      C1718   1.480       .  S
C1679      C1814   1.480       .  S
C1680      C1781   1.490       .  S
C1681      C1682   1.401       .  A
C1681      C1686   1.400       .  A
C1681      H1691   1.084       .  S
C1682      C1687   1.478       .  S
C1682      C1683   1.411       .  A
C1683      C1684   1.399       .  A
C1683      S1688   1.804       .  S
C1684      C1685   1.405       .  A
C1684      H1689   1.084       .  S
C1685      C1686   1.416       .  A
C1686      S1690   1.803       .  S
C1687      C1692   1.409       .  A
C1687      C1696   1.401       .  A
S1688      H1704   1.406       .  S
S1690      H1701   1.408       .  S
C1692      C1693   1.403       .  A
C1692      S1697   1.806       .  S
C1693      C1694   1.405       .  A
C1693      H1698   1.083       .  S
C1694      C1695   1.415       .  A
C1695      C1696   1.398       .  A
C1695      S1699   1.804       .  S
C1696      H1700   1.084       .  S
S1697      H1702   1.407       .  S
S1699      H1703   1.408       .  S
C1705      C1706   1.402       .  A
C1705      C1710   1.400       .  A
C1705      H1715   1.085       .  S
C1706      C1711   1.477       .  S
C1706      C1707   1.411       .  A
C1707      C1708   1.397       .  A
C1707      S1712   1.805       .  S
C1708      C1709   1.404       .  A
C1708      H1713   1.083       .  S
C1709      C1710   1.414       .  A
C1710      S1714   1.803       .  S
C1711      C1716   1.408       .  A
C1711      C1720   1.400       .  A
S1712      H1728   1.405       .  S
S1714      H1725   1.407       .  S
C1716      C1717   1.401       .  A
C1716      S1721   1.807       .  S
C1717      C1718   1.405       .  A
C1717      H1722   1.083       .  S
C1718      C1719   1.417       .  A
C1719      C1720   1.400       .  A
C1719      S1723   1.803       .  S
C1720      H1724   1.084       .  S
S1721      H1726   1.407       .  S
S1723      H1727   1.407       .  S
C1729      C1734   1.399       .  A
C1729      H1739   1.083       .  S
C1730      C1735   1.479       .  S
C1730      C1731   1.411       .  A
C1731      C1732   1.400       .  A
C1731      S1736   1.804       .  S
C1732      H1737   1.083       .  S
C1733      C1734   1.415   1_545  A
C1734      S1738   1.804       .  S
C1735      C1744   1.401       .  A
S1736      H1752   1.405       .  S
S1738      H1749   1.407       .  S
C1740      C1741   1.402       .  A
C1740      S1745   1.807       .  S
C1741      H1746   1.083       .  S
C1742      C1743   1.414       .  A
C1743      C1744   1.399       .  A
C1743      S1747   1.804       .  S
C1744      H1748   1.084       .  S
S1745      H1750   1.407       .  S
S1747      H1751   1.407       .  S
C1753      C1758   1.398       .  A
C1753      H1763   1.084       .  S
C1754      C1759   1.477       .  S
C1754      C1755   1.411       .  A
C1755      C1756   1.401       .  A
C1755      S1760   1.804       .  S
C1756      H1761   1.084       .  S
C1757      C1758   1.414   1_545  A
C1758      S1762   1.804       .  S
C1759      C1768   1.401       .  A
S1760      H1776   1.405       .  S
S1762      H1773   1.407       .  S
C1764      C1765   1.401       .  A
C1764      S1769   1.807       .  S
C1765      H1770   1.082       .  S
C1766      C1767   1.418       .  A
C1767      C1768   1.400       .  A
C1767      S1771   1.803       .  S
C1768      H1772   1.083       .  S
S1769      H1774   1.407       .  S
S1771      H1775   1.408       .  S
C1777      C1778   1.398       .  A
C1777      C1782   1.398       .  A
C1777      H1787   1.085       .  S
C1778      C1783   1.471       .  S
C1778      C1779   1.406       .  A
C1779      C1780   1.397       .  A
C1779      S1784   1.806       .  S
C1780      C1781   1.410       .  A
C1780      H1785   1.083       .  S
C1781      C1782   1.422       .  A
C1782      S1786   1.801       .  S
C1783      C1788   1.406       .  A
C1783      C1792   1.400       .  A
S1784      H1800   1.405       .  S
S1786      H1797   1.407       .  S
C1788      C1789   1.398       .  A
C1788      S1793   1.806       .  S
C1789      C1790   1.403       .  A
C1789      H1794   1.082       .  S
C1790      C1791   1.414       .  A
C1791      C1792   1.397       .  A
C1791      S1795   1.805       .  S
C1792      H1796   1.085       .  S
S1793      H1798   1.407       .  S
S1795      H1799   1.400       .  S
C1801      C1802   1.402       .  A
C1801      C1806   1.398       .  A
C1801      H1811   1.084       .  S
C1802      C1807   1.480       .  S
C1802      C1803   1.412       .  A
C1803      C1804   1.398       .  A
C1803      S1808   1.804       .  S
C1804      C1805   1.404       .  A
C1804      H1809   1.083       .  S
C1805      C1806   1.415       .  A
C1806      S1810   1.807       .  S
C1807      C1812   1.409       .  A
C1807      C1816   1.401       .  A
S1808      H1824   1.405       .  S
S1810      H1821   1.403       .  S
C1812      C1813   1.402       .  A
C1812      S1817   1.806       .  S
C1813      C1814   1.406       .  A
C1813      H1818   1.082       .  S
C1814      C1815   1.416       .  A
C1815      C1816   1.399       .  A
C1815      S1819   1.803       .  S
C1816      H1820   1.084       .  S
S1817      H1822   1.407       .  S
S1819      H1823   1.407       .  S
C1825      C1830   1.401       .  A
C1825      H1835   1.084       .  S
C1826      C1831   1.475       .  S
C1826      C1827   1.411       .  A
C1827      C1828   1.399       .  A
C1827      S1832   1.806       .  S
C1828      C1829   1.406   1_565  A
C1828      H1833   1.084       .  S
C1830      S1834   1.804       .  S
C1831      C1840   1.401       .  A
S1832      H1848   1.405       .  S
S1834      H1845   1.405       .  S
C1836      C1837   1.401       .  A
C1836      S1841   1.806       .  S
C1837      H1842   1.082       .  S
C1838      C1839   1.417       .  A
C1839      C1840   1.400       .  A
C1839      S1843   1.807       .  S
C1840      H1844   1.084       .  S
S1841      H1846   1.407       .  S
S1843      H1847   1.399       .  S
C1849      C1854   1.399       .  A
C1849      H1859   1.084       .  S
C1850      C1855   1.476       .  S
C1850      C1851   1.408       .  A
C1851      C1852   1.398       .  A
C1851      S1856   1.803       .  S
C1852      C1853   1.410   1_565  A
C1852      H1857   1.083       .  S
C1854      S1858   1.800       .  S
C1855      C1860   1.408   1_565  A
S1856      H1872   1.406       .  S
S1858      H1869   1.408       .  S
C1860      C1861   1.398       .  A
C1860      S1865   1.806       .  S
C1861      C1862   1.403   1_545  A
C1861      H1866   1.081       .  S
C1863      C1864   1.401       .  A
C1863      S1867   1.804       .  S
C1864      H1868   1.083       .  S
S1865      H1870   1.407       .  S
S1867      H1871   1.406       .  S
C1873      C1874   1.401   1_554  A
C1873      C1878   1.396       .  A
C1873      H1883   1.085       .  S
C1874      C1879   1.474       .  S
C1874      C1875   1.413       .  A
C1875      C1876   1.398       .  A
C1875      S1880   1.807       .  S
C1876      C1877   1.404   1_556  A
C1876      H1881   1.085       .  S
C1877      C1878   1.414       .  A
C1878      S1882   1.802       .  S
C1879      C1884   1.407       .  A
C1879      C1888   1.400   1_556  A
S1880      H1896   1.405       .  S
S1882      H1893   1.406       .  S
C1884      C1885   1.397       .  A
C1884      S1889   1.807       .  S
C1885      C1886   1.403       .  A
C1885      H1890   1.081       .  S
C1886      C1887   1.416   1_556  A
C1887      C1888   1.397       .  A
C1887      S1891   1.807       .  S
C1888      H1892   1.084       .  S
S1889      H1894   1.407       .  S
S1891      H1895   1.399       .  S
C1897      C1898   1.402   1_556  A
C1897      C1902   1.398       .  A
C1897      H1907   1.085       .  S
C1898      C1903   1.481   1_554  S
C1898      C1899   1.413       .  A
C1899      C1900   1.400       .  A
C1899      S1904   1.807       .  S
C1900      C1901   1.407   1_554  A
C1900      H1905   1.084       .  S
C1901      C1902   1.417       .  A
C1902      S1906   1.802       .  S
C1903      C1908   1.410   1_556  A
C1903      C1912   1.402       .  A
S1904      H1920   1.406       .  S
S1906      H1917   1.408       .  S
C1908      C1909   1.403       .  A
C1908      S1913   1.806       .  S
C1909      C1910   1.403   1_554  A
C1909      H1914   1.082       .  S
C1910      C1911   1.409       .  A
C1911      C1912   1.400       .  A
C1911      S1915   1.802       .  S
C1912      H1916   1.082       .  S
S1913      H1918   1.407       .  S
S1915      H1919   1.406       .  S
C1921      C1926   1.402   1_545  A
C1921      H1931   1.084   1_545  S
C1922      C1927   1.480   1_556  S
C1922      C1923   1.410       .  A
C1923      C1924   1.396       .  A
C1923      S1928   1.804       .  S
C1924      C1925   1.403       .  A
C1924      H1929   1.082       .  S
C1926      S1930   1.807       .  S
C1927      C1932   1.408       .  A
S1928      H1944   1.406       .  S
S1930      H1941   1.399       .  S
C1932      C1933   1.404       .  A
C1932      S1937   1.808       .  S
C1933      C1934   1.408       .  A
C1933      H1938   1.083       .  S
C1935      C1936   1.398       .  A
C1935      S1939   1.803       .  S
C1936      H1940   1.084       .  S
S1937      H1942   1.407       .  S
S1939      H1943   1.407       .  S
C1945      C1950   1.400       .  A
C1945      H1955   1.083       .  S
C1946      C1951   1.486       .  S
C1946      C1947   1.413       .  A
C1947      C1948   1.401       .  A
C1947      S1952   1.803       .  S
C1948      H1953   1.084       .  S
C1949      C1950   1.409   1_565  A
C1950      S1954   1.801       .  S
C1951      C1956   1.410   1_554  A
S1952      H1968   1.406       .  S
S1954      H1965   1.406       .  S
C1956      C1957   1.404   1_556  A
C1956      S1961   1.809       .  S
C1957      C1958   1.409       .  A
C1957      H1962   1.081   1_554  S
C1959      C1960   1.399       .  A
C1959      S1963   1.802       .  S
C1960      H1964   1.084       .  S
S1961      H1966   1.407       .  S
S1963      H1967   1.408       .  S
C1969      C1970   1.399       .  A
C1969      C1974   1.400       .  A
C1969      H1979   1.085       .  S
C1970      C1975   1.478       .  S
C1971      C1972   1.398       .  A
C1971      S1976   1.806       .  S
C1972      C1973   1.410   1_655  A
C1972      H1977   1.084       .  S
C1974      S1978   1.800       .  S
C1975      C1980   1.406       .  A
S1976      H1992   1.405       .  S
S1978      H1989   1.408       .  S
C1980      C1981   1.400       .  A
C1980      S1985   1.805       .  S
C1981      H1986   1.081       .  S
C1982      C1983   1.415   1_655  A
C1983      C1984   1.399       .  A
C1983      S1987   1.808       .  S
C1984      H1988   1.084       .  S
S1985      H1990   1.407       .  S
S1987      H1991   1.401       .  S
C1993      C1998   1.399       .  A
C1993      H2003   1.084       .  S
C1994      C1995   1.409       .  A
C1995      C1996   1.394       .  A
C1995      S2000   1.803       .  S
C1996      C1997   1.403       .  A
C1996      H2001   1.082       .  S
C1998      S2002   1.806       .  S
C1999      C2004   1.410       .  A
S2000      H2016   1.406       .  S
S2002      H2013   1.404       .  S
C2004      C2005   1.404       .  A
C2004      S2009   1.807       .  S
C2005      H2010   1.083       .  S
C2006      C2007   1.416       .  A
C2007      C2008   1.397       .  A
C2007      S2011   1.803       .  S
C2008      H2012   1.084       .  S
S2009      H2014   1.407       .  S
S2011      H2015   1.406       .  S
C2017      C2022   1.399       .  A
C2017      H2027   1.083       .  S
C2018      C2023   1.478       .  S
C2018      C2019   1.411       .  A
C2019      C2020   1.399       .  A
C2019      S2024   1.805       .  S
C2020      C2021   1.406       .  A
C2020      H2025   1.083       .  S
C2022      S2026   1.803       .  S
C2023      C2028   1.410       .  A
S2024      H2040   1.405       .  S
S2026      H2037   1.408       .  S
C2028      C2029   1.402       .  A
C2028      S2033   1.807       .  S
C2029      C2030   1.405       .  A
C2029      H2034   1.083       .  S
C2031      C2032   1.397       .  A
C2031      S2035   1.803       .  S
C2032      H2036   1.085       .  S
S2033      H2038   1.407       .  S
S2035      H2039   1.407       .  S
C2041      C2046   1.399       .  A
C2041      H2051   1.084       .  S
C2042      C2047   1.477       .  S
C2042      C2043   1.411       .  A
C2043      C2044   1.399       .  A
C2043      S2048   1.804       .  S
C2044      H2049   1.084       .  S
C2045      C2046   1.416   1_455  A
C2046      S2050   1.803       .  S
C2047      C2056   1.400       .  A
S2048      H2064   1.405       .  S
S2050      H2061   1.408       .  S
C2052      C2053   1.402       .  A
C2052      S2057   1.806       .  S
C2053      C2054   1.405   1_655  A
C2053      H2058   1.083       .  S
C2055      C2056   1.398       .  A
C2055      S2059   1.804       .  S
C2056      H2060   1.084       .  S
S2057      H2062   1.407       .  S
S2059      H2063   1.407       .  S
C2065      C2066   1.401       .  A
C2065      C2070   1.400       .  A
C2065      H2075   1.083       .  S
C2066      C2071   1.478       .  S
C2067      C2068   1.395       .  A
C2067      S2072   1.804       .  S
C2068      C2069   1.403   1_554  A
C2068      H2073   1.082       .  S
C2070      S2074   1.807       .  S
C2071      C2076   1.409   1_556  A
S2072      H2088   1.406       .  S
S2074      H2085   1.402       .  S
C2076      C2077   1.405       .  A
C2076      S2081   1.807       .  S
C2077      H2082   1.083       .  S
C2078      C2079   1.416       .  A
C2079      C2080   1.398       .  A
C2079      S2083   1.803       .  S
C2080      H2084   1.084       .  S
S2081      H2086   1.407       .  S
S2083      H2087   1.407       .  S
C2089      C2090   1.401   1_456  A
C2089      C2094   1.398       .  A
C2089      H2099   1.084       .  S
C2090      C2095   1.477       .  S
C2091      C2092   1.397       .  A
C2091      S2096   1.803       .  S
C2092      H2097   1.083       .  S
C2093      C2094   1.417       .  A
C2094      S2098   1.806       .  S
C2095      C2100   1.408   1_554  A
S2096      H2112   1.406       .  S
S2098      H2109   1.402       .  S
C2100      C2101   1.401       .  A
C2100      S2105   1.808       .  S
C2101      C2102   1.405   1_556  A
C2101      H2106   1.082       .  S
C2103      C2104   1.400       .  A
C2103      S2107   1.802       .  S
C2104      H2108   1.084       .  S
S2105      H2110   1.407       .  S
S2107      H2111   1.408       .  S
