geometry optimzed in LAMMPS
_audit_creation_date              2020-12-01 
_audit_creation_method            'lammps2cif' 
_symmetry_space_group_name_H-M    'P1' 
_symmetry_Int_Tables_number       1 
_symmetry_cell_setting            triclinic 
loop_ 
_symmetry_equiv_pos_as_xyz 
  x,y,z 
_cell_length_a                    32.90084225 
_cell_length_b                    32.8834218612394 
_cell_length_c                    25.97552892074185 
_cell_angle_alpha                 90.32122850684807 
_cell_angle_beta                  88.64309270516391 
_cell_angle_gamma                 120.099276668456 
loop_ 
_atom_site_label 
_atom_site_type_symbol 
_atom_site_fract_x 
_atom_site_fract_y 
_atom_site_fract_z 
_atom_site_charge 
C1          C  0.66429458  0.33209754  0.10922611     0.30600
C2          C  0.66819298  0.33655033  0.00322357     0.30600
C3          C  0.69276504  0.31182422  0.08194226    -0.05600
C4          C  0.61708274  0.30721887  0.08203507    -0.06300
C5          C  0.68852119  0.38163768  0.08530132    -0.06200
C6          C  0.69433147  0.31400784  0.02817325    -0.05600
C7          C  0.61906454  0.30977203  0.02864751    -0.06300
C8          C  0.69075037  0.38446391  0.03148110    -0.06200
C9          C  0.72286137  0.29690451  0.01081156    -0.31600
N10         N  0.73817372  0.28372926  0.05202242     0.14900
C11         C  0.72230296  0.29513197  0.09534139    -0.31600
H12         H  0.73301374  0.29230579  0.13348765     0.16800
C13         C  0.57343052  0.28813055  0.01212235    -0.30600
N14         N  0.54394250  0.27232166  0.05403672     0.13600
C15         C  0.57023735  0.28340821  0.09690708    -0.30600
C16         C  0.71934898  0.43166308  0.01943780    -0.30900
N17         N  0.73266902  0.45672818  0.06368278     0.14100
H18         H  0.73111441  0.44725421  0.98169299     0.16800
C19         C  0.71477145  0.42645943  0.10401323    -0.30900
H20         H  0.72130416  0.43645045  0.14404096     0.16800
H21         H  0.55625773  0.27585646  0.13602208     0.16800
H22         H  0.73103412  0.29321697  0.97106624     0.16800
H23         H  0.56245401  0.28443440  0.97259310     0.16800
C24         C  0.66325181  0.33797961  0.50306974     0.30600
C25         C  0.66373204  0.33545174  0.60899709     0.30600
C26         C  0.69254756  0.31862894  0.52678773    -0.05600
C27         C  0.68070665  0.38557049  0.53068411    -0.06300
C28         C  0.61484007  0.30846526  0.53041729    -0.06200
C29         C  0.69277930  0.31753460  0.58006091    -0.05600
C30         C  0.68154965  0.38438969  0.58435891    -0.06300
C31         C  0.61459069  0.30700589  0.58428122    -0.06200
C32         C  0.71944756  0.29788561  0.59367092    -0.31600
N33         N  0.73465833  0.28580401  0.55018035     0.14900
C34         C  0.71862271  0.29880819  0.50905425    -0.31600
H35         H  0.72448031  0.29320385  0.46910952     0.16800
C36         C  0.69818706  0.42986873  0.60130114    -0.30600
N37         N  0.70718352  0.45858004  0.55984704     0.13600
C38         C  0.69500007  0.43136278  0.51694269    -0.30600
C39         C  0.56770145  0.28736484  0.60026798    -0.30900
N40         N  0.54043281  0.27529566  0.55824424     0.14100
H41         H  0.55387118  0.28340312  0.63917980     0.16800
C42         C  0.56881457  0.28982939  0.51588450    -0.30900
H43         H  0.55622869  0.28847336  0.47748429     0.16800
H44         H  0.69709263  0.44428631  0.47821347     0.16800
H45         H  0.72737747  0.29318592  0.63259103     0.16800
H46         H  0.70507657  0.44135603  0.64080900     0.16800
C47         C  0.33068979  0.65947824  0.99555249     0.30600
C48         C  0.33524928  0.66475191  0.88960176     0.30600
C49         C  0.30163061  0.67869964  0.97058379    -0.05600
C50         C  0.37972971  0.69005636  0.97107038    -0.06300
C51         C  0.31254734  0.61226532  0.96662602    -0.06200
C52         C  0.30461795  0.68211944  0.91716040    -0.05600
C53         C  0.38285808  0.69232478  0.91736609    -0.06300
C54         C  0.31616331  0.61526587  0.91295462    -0.06200
C55         C  0.27777781  0.70153383  0.90258225    -0.31600
N56         N  0.25870880  0.71018544  0.94549764     0.14900
C57         C  0.27206520  0.69493604  0.98694106    -0.31600
H58         H  0.26223891  0.69704506  0.02647472     0.16800
C59         C  0.43024354  0.71043908  0.90511001    -0.30600
N60         N  0.45520833  0.72217875  0.94898743     0.13600
C61         C  0.42452310  0.70949898  0.98954031    -0.30600
C62         C  0.29658379  0.56996551  0.89437594    -0.30900
N63         N  0.27889016  0.53948253  0.93476257     0.14100
H64         H  0.29271914  0.55979570  0.85432223     0.16800
C65         C  0.28737016  0.56486223  0.97864012    -0.30900
H66         H  0.27386244  0.54941635  0.01625378     0.16800
H67         H  0.43382923  0.71270938  0.02963713     0.16800
H68         H  0.27254620  0.70864656  0.86343171     0.16800
H69         H  0.44588350  0.71205621  0.86761974     0.16800
C70         C  0.33821983  0.66906428  0.38947262     0.30600
C71         C  0.33294739  0.66884803  0.49545874     0.30600
C72         C  0.31196184  0.69300992  0.41373184    -0.05600
C73         C  0.31407185  0.62077278  0.41616751    -0.06300
C74         C  0.38540234  0.69553893  0.41708880    -0.06200
C75         C  0.30799289  0.69154685  0.46754127    -0.05600
C76         C  0.31043858  0.62037200  0.46954829    -0.06300
C77         C  0.38249091  0.69467467  0.47067686    -0.06200
C78         C  0.28077653  0.71135427  0.48069475    -0.31600
N79         N  0.27235056  0.72900933  0.43782082     0.14900
C80         C  0.29122191  0.71808094  0.39668862    -0.31600
H81         H  0.29059019  0.72861852  0.35751797     0.16800
C82         C  0.28626080  0.57380955  0.48488661    -0.30600
N83         N  0.27737528  0.54621232  0.44260650     0.13600
C84         C  0.29385176  0.57482014  0.40044156    -0.30600
C85         C  0.42758795  0.71964833  0.48841937    -0.30900
N86         N  0.45789060  0.73565832  0.44725585     0.14100
H87         H  0.43753678  0.72612180  0.52833565     0.16800
C88         C  0.43239932  0.72259384  0.40369702    -0.30900
H89         H  0.44725467  0.73181154  0.36505709     0.16800
H90         H  0.29182946  0.56311598  0.36107967     0.16800
H91         H  0.26635698  0.71177281  0.51842199     0.16800
H92         H  0.27550859  0.56113263  0.52396399     0.16800
O93         O  0.06001080  0.98009550  0.05112243    -0.87700
C94         C  0.07093766  0.06295976  0.92946388     0.88300
Mg95       Mg  0.00785409  0.90694746  0.05375743     1.58100
O96         O  0.01836412  0.07998619  0.04077973    -0.87400
O97         O  0.07971867  0.04373339  0.09589801    -0.74800
C98         C  0.80618982  0.89485633  0.99052661     0.93400
O99         O  0.04034847  0.95171218  0.93197766    -0.74600
O100        O  0.82729851  0.87130676  0.98711107    -0.82100
Mg101      Mg  0.10173105  0.00454577  0.98103661     1.58000
C102        C  0.89713342  0.08969776  0.02810479     0.93300
O103        O  0.16949447  0.05801534  0.02171230    -0.80300
H104        H  0.02076711  0.09649924  0.11526187    -0.05700
C105        C  0.92743973  0.99456178  0.93257063     0.88200
O106        O  0.95835792  0.92227266  0.10376650    -0.74900
O107        O  0.07967182  0.05586526  0.97347067    -0.87600
O108        O  0.93979357  0.10944979  0.01195178    -0.80400
C109        C  0.08902193  0.18743075  0.96952712     0.93400
C110        C  0.19082192  0.10125030  0.03464361     0.93300
Mg111      Mg  0.89579395  0.99091285  0.04415866     1.58000
O112        O  0.82784128  0.93798238  0.00357481    -0.80400
O113        O  0.95724346  0.04374137  0.09306137    -0.74600
O114        O  0.10992373  0.16709699  0.98808086    -0.80400
O115        O  0.12459303  0.94930492  0.98746798    -0.82100
O116        O  0.88728410  0.82909822  0.03621968    -0.80500
C117        C  0.99982575  0.07483961  0.08401131     0.87700
O118        O  0.91761819  0.93957712  0.05170700    -0.87600
O119        O  0.93762591  0.01537900  0.97414980    -0.87700
O120        O  0.91721440  0.95197335  0.92890157    -0.74800
Mg121      Mg  0.09189861  0.10180138  0.03824934     1.58000
O122        O  0.04461999  0.16570378  0.96524653    -0.82100
H123        H  0.06810547  0.98233189  0.12731626    -0.05900
O124        O  0.97904028  0.91602238  0.98401354    -0.87400
H125        H  0.97669362  0.89927802  0.90961148    -0.05700
H126        H  0.90717585  0.93568090  0.12807845    -0.05900
C127        C  0.99762910  0.92093120  0.94086720     0.87700
C128        C  0.06968070  0.00114062  0.09261148     0.88300
C129        C  0.92636666  0.93222436  0.09560398     0.88300
H130        H  0.92877831  0.01357192  0.89813247    -0.05800
O131        O  0.03898855  0.07289510  0.92104501    -0.74900
Mg132      Mg  0.90527473  0.89414359  0.98653361     1.58000
H133        H  0.09010434  0.05927372  0.89711707    -0.05900
C134        C  0.10051245  0.90509838  0.99575754     0.93300
O135        O  0.95271789  0.83014781  0.05783717    -0.82100
C136        C  0.90834645  0.80851228  0.05352053     0.93400
O137        O  0.16960952  0.12466341  0.03778063    -0.82100
Mg138      Mg  0.98963222  0.08849345  0.97073710     1.58200
O139        O  0.05786965  0.88568676  0.01215640    -0.80400
O140        O  0.87312731  0.04563794  0.03689595    -0.82100
O141        O  0.98521206  0.06745138  0.45336644    -0.87700
C142        C  0.07342259  0.07395134  0.56426255     0.88300
Mg143      Mg  0.91130960  0.01941636  0.45959377     1.58100
O144        O  0.07808873  0.01643272  0.45162199    -0.87400
O145        O  0.04399423  0.08189881  0.40070194    -0.74800
C146        C  0.88889915  0.81265827  0.52734748     0.93400
O147        O  0.96511457  0.05224627  0.57589933    -0.74600
O148        O  0.86920576  0.83734346  0.53299990    -0.82100
Mg149      Mg  0.01685576  0.10996729  0.52008160     1.58000
C150        C  0.08054521  0.89058550  0.46300544     0.93300
O151        O  0.06955953  0.17432534  0.47278539    -0.80300
H152        H  0.08824846  0.01594263  0.37546529    -0.05700
C153        C  0.99847047  0.93165789  0.57043300     0.88200
O154        O  0.91867389  0.96539508  0.40927955    -0.74900
O155        O  0.06411714  0.08271352  0.52131330    -0.87600
O156        O  0.10326902  0.93360915  0.47675828    -0.80400
C157        C  0.19091564  0.08419193  0.51100381     0.93400
C158        C  0.11149800  0.19338092  0.45460682     0.93300
Mg159      Mg  0.98389605  0.89593040  0.46033430     1.58000
O160        O  0.93071435  0.83043149  0.50860801    -0.80400
O161        O  0.03516295  0.95451276  0.40465779    -0.74600
O162        O  0.17106628  0.10605642  0.49397195    -0.80400
O163        O  0.96656954  0.13879165  0.51969338    -0.82100
O164        O  0.82979405  0.90147240  0.48770291    -0.80500
C165        C  0.06850540  0.99658660  0.40942322     0.87700
O166        O  0.93613708  0.92295692  0.45914807    -0.87600
O167        O  0.01592990  0.93893967  0.52643146    -0.87700
O168        O  0.95758825  0.92538336  0.57935066    -0.74800
Mg169      Mg  0.10440703  0.09104750  0.45120839     1.58000
O170        O  0.16833538  0.03973813  0.51691409    -0.82100
H171        H  0.98219415  0.07445291  0.37737613    -0.05900
O172        O  0.92304008  0.99071828  0.52840236    -0.87400
H173        H  0.91120578  0.99094027  0.60422949    -0.05700
H174        H  0.92617015  0.91103950  0.38369061    -0.05900
C175        C  0.93172163  0.01034766  0.57066049     0.87700
C176        C  0.00288933  0.07511851  0.40943788     0.88300
C177        C  0.92658592  0.93176343  0.41633587     0.88300
H178        H  0.01924497  0.93235078  0.60242434    -0.05800
O179        O  0.08152322  0.04049357  0.57149234    -0.74900
Mg180      Mg  0.89687786  0.91611121  0.52945250     1.58000
H181        H  0.07334409  0.09448678  0.59686231    -0.05900
C182        C  0.92217988  0.11830090  0.51518318     0.93300
O183        O  0.83286375  0.96806361  0.46453991    -0.82100
C184        C  0.80997072  0.92377163  0.47176429     0.93400
O185        O  0.13232098  0.16984259  0.44859293    -0.82100
Mg186      Mg  0.08980521  0.98765026  0.52034131     1.58200
O187        O  0.89876991  0.07524761  0.50143081    -0.80400
O188        O  0.03587123  0.86862162  0.45989239    -0.82100
C189        C  0.20094695  0.42254581  0.39683249    -0.01400
C190        C  0.20807663  0.39627166  0.43448163     0.07200
C191        C  0.23828437  0.41965339  0.47492059    -0.07300
C192        C  0.26093620  0.46864536  0.47893202     0.04700
C193        C  0.25381436  0.49543033  0.44132674    -0.14600
C194        C  0.22379759  0.47159426  0.40042439    -0.07900
C195        C  0.18250319  0.34417842  0.43436316     0.05600
C196        C  0.20744613  0.32052868  0.42518933    -0.09000
C197        C  0.18515395  0.27139514  0.42931183     0.00600
C198        C  0.13662822  0.24494380  0.44317297     0.00500
C199        C  0.11173444  0.26918532  0.45061116    -0.12600
C200        C  0.13421808  0.31813779  0.44688884     0.00900
C201        C  0.21362646  0.24986383  0.42040622     0.40200
C202        C  0.10757026  0.34112943  0.45889841     0.36900
C203        C  0.17032131  0.39985404  0.35427318     0.36600
C204        C  0.29137026  0.48955097  0.52191066     0.37300
N205        N  0.23678461  0.23299434  0.41315463    -0.43400
N206        N  0.08640929  0.35971246  0.46866199    -0.43900
N207        N  0.31481831  0.50452937  0.55746646    -0.41300
N208        N  0.14560777  0.38155121  0.32030663    -0.42700
H209        H  0.21763910  0.49136005  0.37145973     0.13500
H210        H  0.24357423  0.39931712  0.50403388     0.10000
H211        H  0.24474222  0.34070617  0.41574699     0.11000
H212        H  0.07466183  0.25009555  0.46115056     0.16800
C213        C  0.58281851  0.82489107  0.41321935    -0.01400
C214        C  0.60786652  0.81355315  0.44827144     0.07200
C215        C  0.58277274  0.77597398  0.48280973    -0.07300
C216        C  0.53367014  0.74953222  0.48255712     0.04700
C217        C  0.50847877  0.76188685  0.44874010    -0.14600
C218        C  0.53364356  0.79947355  0.41415361    -0.07900
C219        C  0.65998051  0.84155786  0.45102880     0.05600
C220        C  0.68119664  0.88988963  0.46020238    -0.09000
C221        C  0.72977919  0.91760221  0.46576802     0.00600
C222        C  0.75854269  0.89689210  0.46261192     0.00500
C223        C  0.73712572  0.84838708  0.45295830    -0.12600
C224        C  0.68846392  0.82077037  0.44716812     0.00900
C225        C  0.74801956  0.96656565  0.47713822     0.40200
C226        C  0.66874737  0.77126008  0.43707100     0.36900
C227        C  0.60672649  0.86138633  0.37479086     0.36600
C228        C  0.51059553  0.70831624  0.51511744     0.37300
N229        N  0.76127268  0.00562380  0.48623400    -0.43400
N230        N  0.65300978  0.73153277  0.42929175    -0.43900
N231        N  0.49290936  0.67518572  0.54120637    -0.41300
N232        N  0.62582124  0.89048115  0.34381792    -0.42700
H233        H  0.51472345  0.80885012  0.38756368     0.13500
H234        H  0.60168917  0.76698978  0.50988497     0.10000
H235        H  0.65941727  0.90592796  0.46428550     0.11000
H236        H  0.75844245  0.83179210  0.45005633     0.16800
C237        C  0.18631901  0.76603270  0.39816343    -0.01400
C238        C  0.19311272  0.79996746  0.43573462     0.07200
C239        C  0.22776788  0.81156397  0.47253145    -0.07300
C240        C  0.25483517  0.78953637  0.47294848     0.04700
C241        C  0.24701843  0.75439301  0.43643140    -0.14600
C242        C  0.21322034  0.74370434  0.39872059    -0.07900
C243        C  0.16389015  0.82305941  0.43836590     0.05600
C244        C  0.11549207  0.79564876  0.44926122    -0.09000
C245        C  0.08734187  0.81633981  0.45621248     0.00600
C246        C  0.10757156  0.86582237  0.45195707     0.00500
C247        C  0.15600495  0.89295487  0.43992170    -0.12600
C248        C  0.18402462  0.87217195  0.43329177     0.00900
C249        C  0.03851011  0.78585519  0.47047615     0.40200
C250        C  0.23346092  0.90203437  0.42124246     0.36900
C251        C  0.15246698  0.75412121  0.35823419     0.36600
C252        C  0.29144342  0.80481063  0.51022470     0.37300
N253        N  0.99946254  0.76107518  0.48204724    -0.43400
N254        N  0.27310720  0.92594861  0.41170802    -0.43900
N255        N  0.32079099  0.81711036  0.54013204    -0.41300
N256        N  0.12539097  0.74465966  0.32615221    -0.42700
H257        H  0.20723870  0.71717146  0.37020988     0.13500
H258        H  0.23353326  0.83785922  0.50130024     0.10000
H259        H  0.09987929  0.75792890  0.45395459     0.11000
H260        H  0.17235937  0.93081631  0.43617514     0.16800
C261        C  0.19125738  0.31302103  0.96286254    -0.01400
C262        C  0.17131048  0.33722755  0.93934238     0.07200
C263        C  0.12509257  0.31163704  0.92216024    -0.07300
C264        C  0.09798985  0.26285670  0.92978951     0.04700
C265        C  0.11729439  0.23842311  0.95514550    -0.14600
C266        C  0.16445420  0.26424593  0.97030671    -0.07900
C267        C  0.19715317  0.38946496  0.93526911     0.05600
C268        C  0.23798703  0.41252997  0.90401717    -0.09000
C269        C  0.26467542  0.46183142  0.90203693     0.00600
C270        C  0.25075171  0.48890086  0.93218704     0.00500
C271        C  0.20920564  0.46562534  0.96229847    -0.12600
C272        C  0.18236120  0.41652355  0.96386089     0.00900
C273        C  0.30704712  0.48351961  0.87045671     0.40200
C274        C  0.14047313  0.39472446  0.99632382     0.36900
C275        C  0.23841271  0.33782261  0.98212511     0.36600
C276        C  0.05046276  0.23948017  0.91155158     0.37300
N277        N  0.34083881  0.50057908  0.84476796    -0.43400
N278        N  0.10679563  0.37729676  0.02217243    -0.43900
N279        N  0.01238688  0.22106177  0.89691045    -0.41300
N280        N  0.27617941  0.35775308  0.99761117    -0.42700
H281        H  0.18020933  0.24666250  0.98980145     0.13500
H282        H  0.10978937  0.33013449  0.90362317     0.10000
H283        H  0.24936457  0.39189083  0.88171307     0.11000
H284        H  0.19781945  0.48603907  0.98497077     0.16800
C285        C  0.68582844  0.80395432  0.94271932    -0.01400
C286        C  0.65684341  0.82101046  0.96186811     0.07200
C287        C  0.67703258  0.86324615  0.98921270    -0.07300
C288        C  0.72533794  0.88819203  0.99865641     0.04700
C289        C  0.75481863  0.87103237  0.97989901    -0.14600
C290        C  0.73422611  0.82888404  0.95172251    -0.07900
C291        C  0.60502694  0.79434870  0.95605387     0.05600
C292        C  0.57777230  0.75500212  0.98772178    -0.09000
C293        C  0.52856202  0.73043261  0.98564774     0.00600
C294        C  0.50578502  0.74523077  0.95124771     0.00500
C295        C  0.53332045  0.78396632  0.91869861    -0.12600
C296        C  0.58247973  0.80862887  0.92100938     0.00900
C297        C  0.50247507  0.68948718  0.01812616     0.40200
C298        C  0.60911617  0.84834831  0.88697863     0.36900
C299        C  0.66663434  0.76103523  0.91350913     0.36600
C300        C  0.74266310  0.92985633  0.02990205     0.37300
N301        N  0.48166143  0.65670993  0.04432183    -0.43400
N302        N  0.63042982  0.88012574  0.85959960    -0.43900
N303        N  0.75603956  0.96304572  0.05518009    -0.41300
N304        N  0.65127400  0.72667609  0.88999962    -0.42700
H305        H  0.75593216  0.81511201  0.93674784     0.13500
H306        H  0.65463067  0.87616916  0.00436937     0.10000
H307        H  0.59506266  0.74375381  0.01449404     0.11000
H308        H  0.51619207  0.79551050  0.89208712     0.16800
C309        C  0.17130316  0.74502801  0.99334376    -0.01400
C310        C  0.18245754  0.78453069  0.96210967     0.07200
C311        C  0.21815835  0.79815656  0.92415567    -0.07300
C312        C  0.24295807  0.77390715  0.91740715     0.04700
C313        C  0.23153735  0.73399255  0.94824882    -0.14600
C314        C  0.19520970  0.71994512  0.98570367    -0.07900
C315        C  0.16045740  0.81457590  0.97074650     0.05600
C316        C  0.18956840  0.86226632  0.98268710    -0.09000
C317        C  0.17121413  0.89234857  0.99063559     0.00600
C318        C  0.12230216  0.87496683  0.98671377     0.00500
C319        C  0.09318928  0.82710742  0.97483554    -0.12600
C320        C  0.11173651  0.79721039  0.96633493     0.00900
C321        C  0.20349249  0.94039887  0.00462436     0.40200
C322        C  0.08015113  0.74930859  0.95133542     0.36900
C323        C  0.13770350  0.73130321  0.03570613     0.36600
C324        C  0.28232158  0.79326795  0.88138783     0.37300
N325        N  0.22964021  0.97881422  0.01590808    -0.43400
N326        N  0.05463341  0.71093579  0.93935802    -0.43900
N327        N  0.31401222  0.80909157  0.85261894    -0.41300
N328        N  0.11092219  0.72032367  0.06981808    -0.42700
H329        H  0.18629079  0.68986891  0.01015255     0.13500
H330        H  0.22775363  0.82897838  0.90063941     0.10000
H331        H  0.22700664  0.87603633  0.98632802     0.11000
H332        H  0.05570816  0.81303385  0.97125370     0.16800
C333        C  0.32591781  0.70124544  0.63723680    -0.01400
C334        C  0.33360977  0.66876113  0.66399499     0.07200
C335        C  0.34611340  0.63996177  0.63619817    -0.07300
C336        C  0.34841931  0.64140688  0.58221937     0.04700
C337        C  0.33402674  0.66912546  0.55470654    -0.14600
C338        C  0.32706227  0.70171929  0.58338010    -0.07900
C339        C  0.33415540  0.66836938  0.72100512     0.05600
C340        C  0.29286283  0.63870607  0.74895319    -0.09000
C341        C  0.29218603  0.63812647  0.80299516     0.00600
C342        C  0.33401163  0.66698505  0.83038453     0.00500
C343        C  0.37382234  0.69973011  0.80142783    -0.12600
C344        C  0.37475022  0.69938850  0.74756407     0.00900
C345        C  0.24746692  0.60880294  0.82898229     0.40200
C346        C  0.41776540  0.73142868  0.72009531     0.36900
C347        C  0.31921503  0.73599542  0.66434197     0.36600
C348        C  0.37057093  0.61832226  0.55644735     0.37300
N349        N  0.21162926  0.58527784  0.84976443    -0.43400
N350        N  0.45219189  0.75670895  0.69780736    -0.43900
N351        N  0.38926045  0.60088413  0.53544180    -0.41300
N352        N  0.31425779  0.76409795  0.68604109    -0.42700
H353        H  0.32589885  0.73019512  0.56437297     0.13500
H354        H  0.35610549  0.61780506  0.65684202     0.10000
H355        H  0.26094564  0.61624494  0.72843057     0.11000
H356        H  0.40382949  0.72740747  0.81996003     0.16800
C357        C  0.33462435  0.62077151  0.13457741    -0.01400
C358        C  0.33620273  0.65756800  0.16400988     0.07200
C359        C  0.34007602  0.69681410  0.13847572    -0.07300
C360        C  0.34001835  0.69881099  0.08460489     0.04700
C361        C  0.33225850  0.65927341  0.05478713    -0.14600
C362        C  0.33370466  0.62243564  0.08077722    -0.07900
C363        C  0.33515616  0.65691425  0.22131648     0.05600
C364        C  0.37084239  0.65539222  0.24814547    -0.09000
C365        C  0.37142252  0.65674166  0.30217871     0.00600
C366        C  0.33855866  0.66484352  0.33040030     0.00500
C367        C  0.29991757  0.66034584  0.30322356    -0.12600
C368        C  0.29829956  0.65719621  0.24954218     0.00900
C369        C  0.40313524  0.64505983  0.32683502     0.40200
C370        C  0.25731260  0.65205089  0.22437308     0.36900
C371        C  0.33397744  0.58089963  0.15848757     0.36600
C372        C  0.35186442  0.74334678  0.06146363     0.37300
N373        N  0.42854771  0.63525952  0.34591350    -0.43400
N374        N  0.22432664  0.64758970  0.20424324    -0.43900
N375        N  0.36167465  0.77927259  0.04327160    -0.41300
N376        N  0.33369966  0.54898754  0.17742948    -0.42700
H377        H  0.33664784  0.59576196  0.05952647     0.13500
H378        H  0.34442726  0.72664329  0.16086237     0.10000
H379        H  0.39776998  0.65205496  0.22683224     0.11000
H380        H  0.26955871  0.65725940  0.32379472     0.16800
C381        C  0.82587788  0.25552635  0.50474536    -0.01400
C382        C  0.81775067  0.21855531  0.53851877     0.07200
C383        C  0.78270135  0.20487719  0.57716831    -0.07300
C384        C  0.75547769  0.22669817  0.58212630     0.04700
C385        C  0.76285944  0.26318863  0.54760329    -0.14600
C386        C  0.79834844  0.27709264  0.50923369    -0.07900
C387        C  0.84446413  0.19286629  0.53353133     0.05600
C388        C  0.89326005  0.21696740  0.54025442    -0.09000
C389        C  0.91947297  0.19394972  0.53516249     0.00600
C390        C  0.89662677  0.14510371  0.52400768     0.00500
C391        C  0.84761136  0.12132101  0.51804530    -0.12600
C392        C  0.82171882  0.14452643  0.52208677     0.00900
C393        C  0.96973184  0.22206519  0.54042611     0.40200
C394        C  0.77208249  0.11833780  0.51185364     0.36900
C395        C  0.86173054  0.27140887  0.46457182     0.36600
C396        C  0.71934437  0.20960130  0.62203300     0.37300
N397        N  0.01001755  0.24498653  0.54446362    -0.43400
N398        N  0.73238707  0.09737574  0.50329308    -0.43900
N399        N  0.69077243  0.19597905  0.65449938    -0.41300
N400        N  0.89068953  0.28430988  0.43258549    -0.42700
H401        H  0.80482732  0.30524005  0.48283782     0.13500
H402        H  0.77636712  0.17666517  0.60345773     0.10000
H403        H  0.91105967  0.25416679  0.54908518     0.11000
H404        H  0.82935484  0.08439540  0.50897656     0.16800
C405        C  0.86361634  0.68826753  0.55433093    -0.01400
C406        C  0.81398650  0.66215804  0.55619048     0.07200
C407        C  0.78911831  0.68641049  0.55389021    -0.07300
C408        C  0.81247712  0.73534976  0.54667981     0.04700
C409        C  0.86225044  0.76138884  0.54117962    -0.14600
C410        C  0.88710322  0.73713153  0.54647043    -0.07900
C411        C  0.78711369  0.60956641  0.55761733     0.05600
C412        C  0.75405724  0.58582285  0.59765481    -0.09000
C413        C  0.72667175  0.53642888  0.59875558     0.00600
C414        C  0.73271423  0.50961295  0.55961123     0.00500
C415        C  0.76532418  0.53371809  0.51926754    -0.12600
C416        C  0.79166117  0.58287658  0.51750284     0.00900
C417        C  0.69105126  0.51461958  0.63886326     0.40200
C418        C  0.82160593  0.60507118  0.47279817     0.36900
C419        C  0.89129405  0.66576853  0.56048642     0.36600
C420        C  0.78386083  0.75708957  0.54317758     0.37300
N421        N  0.66242343  0.49741120  0.67104933    -0.43400
N422        N  0.84550043  0.62282707  0.43690647    -0.43900
N423        N  0.76071139  0.77429413  0.54059912    -0.41300
N424        N  0.91357816  0.64783747  0.56527722    -0.42700
H425        H  0.92516396  0.75632499  0.54404773     0.13500
H426        H  0.75101279  0.66673064  0.55596488     0.10000
H427        H  0.74919051  0.60603362  0.62781896     0.11000
H428        H  0.77042467  0.51404418  0.48873132     0.16800
C429        C  0.42119783  0.17979345  0.52072581    -0.01400
C430        C  0.39146755  0.19246785  0.54740123     0.07200
C431        C  0.41130134  0.23208173  0.57943437    -0.07300
C432        C  0.46024822  0.25929130  0.58459360     0.04700
C433        C  0.48997341  0.24712471  0.55695878    -0.14600
C434        C  0.46991369  0.20717819  0.52549513    -0.07900
C435        C  0.33984628  0.16588897  0.54018238     0.05600
C436        C  0.31287163  0.12112806  0.56247795    -0.09000
C437        C  0.26447148  0.09390123  0.55400714     0.00600
C438        C  0.24202011  0.11165973  0.52270913     0.00500
C439        C  0.26944420  0.15688964  0.50090480    -0.12600
C440        C  0.31784086  0.18369944  0.50900427     0.00900
C441        C  0.23905157  0.04817542  0.57836070     0.40200
C442        C  0.34470095  0.22855712  0.48308013     0.36900
C443        C  0.40253403  0.13965866  0.48700853     0.36600
C444        C  0.47928014  0.30061717  0.61636797     0.37300
N445        N  0.21874307  0.01147153  0.59777921    -0.43400
N446        N  0.36642324  0.26436620  0.46209245    -0.43900
N447        N  0.49461230  0.33377940  0.64189363    -0.41300
N448        N  0.38754443  0.10748950  0.45999978    -0.42700
H449        H  0.49264689  0.19760889  0.50430908     0.13500
H450        H  0.38851676  0.24207734  0.59979037     0.10000
H451        H  0.32988141  0.10724843  0.58619589     0.11000
H452        H  0.25333344  0.17105882  0.47627272     0.16800
C453        C  0.82202185  0.24306229  0.00960564    -0.01400
C454        C  0.80669197  0.20251629  0.04046551     0.07200
C455        C  0.76921478  0.18965387  0.07567661    -0.07300
C456        C  0.74694705  0.21633446  0.08053317     0.04700
C457        C  0.76230297  0.25717200  0.04988337    -0.14600
C458        C  0.79973605  0.26988532  0.01437817    -0.07900
C459        C  0.82945433  0.17318990  0.03716247     0.05600
C460        C  0.87589989  0.19217195  0.05318273    -0.09000
C461        C  0.89844189  0.16554237  0.05140630     0.00600
C462        C  0.87410285  0.11853960  0.03405626     0.00500
C463        C  0.82731439  0.09940142  0.01876540    -0.12600
C464        C  0.80515782  0.12639043  0.01956289     0.00900
C465        C  0.94617346  0.18703318  0.06869358     0.40200
C466        C  0.75832817  0.10607864  0.99977325     0.36900
C467        C  0.85954664  0.25683890  0.97173134     0.36600
C468        C  0.70694559  0.19961350  0.11551033     0.37300
N469        N  0.98445779  0.20432714  0.08250165    -0.43400
N470        N  0.72097778  0.08984204  0.98343124    -0.43900
N471        N  0.67492200  0.18631053  0.14362306    -0.41300
N472        N  0.88957418  0.26761933  0.94135361    -0.42700
H473        H  0.81140243  0.30074170  0.99024803     0.13500
H474        H  0.75713447  0.15838845  0.09929067     0.10000
H475        H  0.89457965  0.22797600  0.06720523     0.11000
H476        H  0.80849959  0.06373372  0.00436121     0.16800
C477        C  0.76307424  0.57784180  0.10475260    -0.01400
C478        C  0.80303819  0.60596000  0.07337396     0.07200
C479        C  0.82080447  0.58435103  0.04034426    -0.07300
C480        C  0.79870702  0.53537527  0.03720622     0.04700
C481        C  0.75800310  0.50713746  0.06761906    -0.14600
C482        C  0.74100257  0.52883589  0.10169613    -0.07900
C483        C  0.82746135  0.65800239  0.07419992     0.05600
C484        C  0.87398451  0.68267913  0.09039324    -0.09000
C485        C  0.90048184  0.73171790  0.08662210     0.00600
C486        C  0.88033492  0.75721770  0.06570926     0.00500
C487        C  0.83279380  0.73216931  0.05172903    -0.12600
C488        C  0.80649796  0.68310879  0.05552756     0.00900
C489        C  0.94834530  0.75418654  0.10374921     0.40200
C490        C  0.75885824  0.65921298  0.03757157     0.36900
C491        C  0.74423494  0.59843946  0.14034831     0.36600
C492        C  0.81922567  0.51505890  0.00361899     0.37300
N493        N  0.98667339  0.77186074  0.11751071    -0.43400
N494        N  0.72061316  0.64003564  0.02342593    -0.43900
N495        N  0.83564907  0.49882735  0.97651921    -0.41300
N496        N  0.72897263  0.61498146  0.16861796    -0.42700
H497        H  0.70976627  0.50731511  0.12521013     0.13500
H498        H  0.85192761  0.60593462  0.01664757     0.10000
H499        H  0.88999225  0.66330319  0.10507411     0.11000
H500        H  0.81638914  0.75064779  0.03573365     0.16800
C501        C  0.31750831  0.13006954  0.02089126    -0.01400
C502        C  0.34181162  0.17212389  0.04889056     0.07200
C503        C  0.31611207  0.19002331  0.07440621    -0.07300
C504        C  0.26688952  0.16689962  0.07209929     0.04700
C505        C  0.24245695  0.12525134  0.04292760    -0.14600
C506        C  0.26847945  0.10714576  0.01820149    -0.07900
C507        C  0.39400818  0.19809541  0.05163739     0.05600
C508        C  0.41993494  0.24193637  0.02684761    -0.09000
C509        C  0.46921457  0.26694466  0.02762894     0.00600
C510        C  0.49335414  0.24799365  0.05336643     0.00500
C511        C  0.46737281  0.20479310  0.07933284    -0.12600
C512        C  0.41811617  0.17984926  0.07871214     0.00900
C513        C  0.49427962  0.31292493  0.00390478     0.40200
C514        C  0.39292156  0.13609789  0.10698909     0.36900
C515        C  0.34216235  0.11039121  0.99328217     0.36600
C516        C  0.24253886  0.18599773  0.10137409     0.37300
N517        N  0.51448647  0.34995091  0.98521786    -0.43400
N518        N  0.37255456  0.10104692  0.12967526    -0.43900
N519        N  0.22315004  0.20125698  0.12516884    -0.39300
N520        N  0.36169014  0.09435142  0.97119909    -0.42700
H521        H  0.25062887  0.07554238  0.99531711     0.13500
H522        H  0.33462431  0.22203232  0.09655488     0.10000
H523        H  0.40159262  0.25658651  0.00681352     0.11000
H524        H  0.48575997  0.19044634  0.09978891     0.16800
C525        C  0.67671907  0.37372454  0.86064027    -0.01400
C526        C  0.66969163  0.33313820  0.83445327     0.07200
C527        C  0.65872778  0.29284305  0.86330540    -0.07300
C528        C  0.65512499  0.29267612  0.91712102     0.04700
C529        C  0.66719229  0.33485125  0.94400925    -0.14600
C530        C  0.67454774  0.37392200  0.91457946    -0.07900
C531        C  0.66937547  0.33092095  0.77709194     0.05600
C532        C  0.70935079  0.36288232  0.74825590    -0.09000
C533        C  0.70888270  0.36385260  0.69423379     0.00600
C534        C  0.66712246  0.33335529  0.66782926     0.00500
C535        C  0.62986538  0.29750178  0.69697319    -0.12600
C536        C  0.62970657  0.29718464  0.75073646     0.00900
C537        C  0.75248109  0.39479295  0.66709534     0.40200
C538        C  0.58764748  0.26254901  0.77778566     0.36900
C539        C  0.68375621  0.41482928  0.83293003     0.36600
C540        C  0.63582325  0.24787185  0.94329078     0.37300
N541        N  0.78748753  0.41933421  0.64531938    -0.43400
N542        N  0.55396108  0.23486534  0.79949592    -0.43900
N543        N  0.61989717  0.21197709  0.96432247    -0.41300
N544        N  0.68943971  0.44768105  0.81054406    -0.42700
H545        H  0.67539996  0.40372168  0.93289945     0.13500
H546        H  0.65139976  0.26079214  0.84358393     0.10000
H547        H  0.74105876  0.38715767  0.76808878     0.11000
H548        H  0.60118133  0.26822216  0.67835394     0.16800
C549        C  0.62440714  0.29757040  0.36454175    -0.01400
C550        C  0.65966085  0.33415663  0.33451524     0.07200
C551        C  0.69849805  0.37060393  0.35884543    -0.07300
C552        C  0.70160368  0.37188488  0.41277247     0.04700
C553        C  0.66394312  0.33733789  0.44368732    -0.14600
C554        C  0.62811767  0.29829614  0.41799045    -0.07900
C555        C  0.65889410  0.33204826  0.27750268     0.05600
C556        C  0.64477200  0.35911908  0.24994865    -0.09000
C557        C  0.64339827  0.35737406  0.19598276     0.00600
C558        C  0.65916693  0.33015716  0.16834444     0.00500
C559        C  0.66739588  0.29892164  0.19700102    -0.12600
C560        C  0.66891035  0.30069812  0.25072174     0.00900
C561        C  0.62371877  0.38227529  0.17044643     0.40200
C562        C  0.68068913  0.26982730  0.27768423     0.36900
C563        C  0.58400003  0.25881756  0.34124717     0.36600
C564        C  0.74539532  0.40688382  0.43431457     0.37300
N565        N  0.60775058  0.40206727  0.15006737    -0.43400
N566        N  0.69013631  0.24517208  0.29942318    -0.43900
N567        N  0.78077017  0.43519614  0.45091402    -0.41300
N568        N  0.55147678  0.22803690  0.32251227    -0.42700
H569        H  0.60323419  0.26718348  0.43919706     0.13500
H570        H  0.72715729  0.39731755  0.33549343     0.10000
H571        H  0.63401837  0.38100866  0.27073061     0.11000
H572        H  0.67060231  0.27142042  0.17817874     0.16800
loop_ 
_geom_bond_atom_site_label_1 
_geom_bond_atom_site_label_2 
_geom_bond_distance 
_geom_bond_site_symmetry_2 
_ccdc_geom_bond_type 
C1            C3   1.554       .  S
C1            C5   1.537       .  S
C1            C4   1.534       .  S
C1          C558   1.539       .  S
C2            C6   1.543       .  S
C2            C8   1.553       .  S
C2            C7   1.534       .  S
C2          C529   1.539   1_554  S
C3           C11   1.386       .  A
C3            C6   1.397       .  A
C4           C15   1.379       .  A
C4            C7   1.388       .  A
C5           C19   1.375       .  A
C5            C8   1.399       .  A
C6            C9   1.381       .  A
C7           C13   1.379       .  A
C8           C16   1.385       .  A
C9           N10   1.355       .  A
C9           H22   1.082   1_554  S
N10          C11   1.358       .  A
N10         C457   1.445       .  S
C11          H12   1.079       .  S
C13          N14   1.359       .  A
C13          H23   1.082   1_554  S
N14          C15   1.359       .  A
N14         C510   1.441       .  S
C15          H21   1.082       .  S
C16          N17   1.358       .  A
C16          H18   1.078   1_554  S
N17          C19   1.353       .  A
N17         C481   1.438       .  S
C19          H20   1.082       .  S
C24          C26   1.537       .  S
C24          C28   1.545       .  S
C24          C27   1.549       .  S
C24         C553   1.542       .  S
C25          C29   1.533       .  S
C25          C31   1.558       .  S
C25          C30   1.546       .  S
C25         C534   1.539       .  S
C26          C34   1.383       .  A
C26          C29   1.385       .  A
C27          C38   1.380       .  A
C27          C30   1.396       .  A
C28          C42   1.380       .  A
C28          C31   1.400       .  A
C29          C32   1.378       .  A
C30          C36   1.383       .  A
C31          C39   1.394       .  A
C32          N33   1.361       .  A
C32          H45   1.081       .  S
N33          C34   1.364       .  A
N33         C385   1.452       .  S
C34          H35   1.082       .  S
C36          N37   1.362       .  A
C36          H46   1.081       .  S
N37          C38   1.362       .  A
N37         C414   1.452       .  S
C38          H44   1.081       .  S
C39          N40   1.356       .  A
C39          H41   1.080       .  S
N40          C42   1.349       .  A
N40         C433   1.441       .  S
C42          H43   1.081       .  S
C47          C49   1.541       .  S
C47          C51   1.552       .  S
C47          C50   1.533       .  S
C47         C361   1.541   1_556  S
C48          C52   1.547       .  S
C48          C54   1.542       .  S
C48          C53   1.555       .  S
C48         C342   1.543       .  S
C49          C57   1.382       .  A
C49          C52   1.390       .  A
C50          C61   1.377       .  A
C50          C53   1.396       .  A
C51          C65   1.383       .  A
C51          C54   1.396       .  A
C52          C55   1.384       .  A
C53          C59   1.391       .  A
C54          C62   1.382       .  A
C55          N56   1.364       .  A
C55          H68   1.082       .  S
N56          C57   1.361       .  A
N56         C313   1.454       .  S
C57          H58   1.082   1_556  S
C59          N60   1.358       .  A
C59          H69   1.080       .  S
N60          C61   1.355       .  A
N60         C294   1.444       .  S
C61          H67   1.082   1_556  S
C62          N63   1.357       .  A
C62          H64   1.082       .  S
N63          C65   1.358       .  A
N63         C270   1.444       .  S
C65          H66   1.081   1_556  S
C70          C72   1.554       .  S
C70          C74   1.540       .  S
C70          C73   1.534       .  S
C70         C366   1.540       .  S
C71          C75   1.551       .  S
C71          C77   1.536       .  S
C71          C76   1.539       .  S
C71         C337   1.540       .  S
C72          C80   1.387       .  A
C72          C75   1.400       .  A
C73          C84   1.375       .  A
C73          C76   1.388       .  A
C74          C88   1.379       .  A
C74          C77   1.392       .  A
C75          C78   1.382       .  A
C76          C82   1.381       .  A
C77          C85   1.376       .  A
C78          N79   1.356       .  A
C78          H91   1.082       .  S
N79          C80   1.358       .  A
N79         C241   1.446       .  S
C80          H81   1.081       .  S
C82          N83   1.361       .  A
C82          H92   1.081       .  S
N83          C84   1.360       .  A
N83         C193   1.447       .  S
C84          H90   1.082       .  S
C85          N86   1.358       .  A
C85          H87   1.082       .  S
N86          C88   1.359       .  A
N86         C217   1.442       .  S
C88          H89   1.082       .  S
O93         Mg95   2.143       .  S
O93        Mg101   2.153   1_564  S
O93         C128   1.236   1_565  S
C94         H133   1.081       .  S
C94         O107   1.237       .  S
C94         O131   1.271       .  A
Mg95        O124   2.154   1_454  S
Mg95        O139   2.329       .  S
Mg95        O135   2.254   1_455  S
Mg95        O106   2.304   1_455  S
O96        Mg138   2.153   1_454  S
O96        Mg121   2.150       .  S
O96         C117   1.236   1_455  S
O97         C128   1.270       .  A
O97        Mg121   2.299       .  S
C98         O100   1.275       .  A
C98         O112   1.275   1_556  A
C98         C289   1.496       .  S
O99         C127   1.270   1_455  A
O99        Mg101   2.302   1_565  S
O100       Mg132   2.283       .  S
Mg101       O107   2.157       .  S
Mg101       O115   2.296   1_545  S
Mg101       O103   2.310   1_556  S
C102        O140   1.274       .  A
C102        O108   1.276       .  A
C102        C462   1.487       .  S
O103        C110   1.277       .  A
H104        C117   1.081   1_455  S
C105        H130   1.082   1_565  S
C105        O119   1.235   1_565  S
C105        O120   1.269       .  A
O106        C129   1.271       .  A
O107       Mg121   2.161   1_556  S
O108       Mg138   2.313   1_554  S
C109        O122   1.272       .  A
C109        O114   1.278       .  A
C109        C265   1.498       .  S
C110        O137   1.274       .  A
C110        C505   1.492       .  S
Mg111       O118   2.152       .  S
Mg111       O119   2.153   1_564  S
Mg111       O112   2.308       .  S
Mg111       O113   2.301   1_565  S
Mg111       O140   2.277   1_565  S
O113        C117   1.270       .  A
O114       Mg121   2.319   1_556  S
O115        C134   1.276       .  A
O116        C136   1.276       .  A
O116       Mg132   2.306   1_554  S
O118       Mg132   2.158   1_554  S
O118        C129   1.237       .  S
O119       Mg138   2.141       .  S
O120       Mg132   2.295       .  S
Mg121       O137   2.274       .  S
O122       Mg138   2.264   1_455  S
H123        C128   1.082   1_565  S
O124       Mg132   2.157       .  S
O124        C127   1.236       .  S
H125        C127   1.081       .  S
H126        C129   1.081       .  S
O131       Mg138   2.301   1_455  S
C134        O139   1.278   1_556  A
C134        C318   1.501       .  S
O135        C136   1.271       .  A
C136        C486   1.493       .  S
O141       Mg143   2.137       .  S
O141       Mg149   2.154   1_655  S
O141        C176   1.236   1_655  S
C142        H181   1.081       .  S
C142        O155   1.237       .  S
C142        O179   1.271       .  A
Mg143       O172   2.157   1_545  S
Mg143       O187   2.332       .  S
Mg143       O183   2.268   1_545  S
Mg143       O154   2.305   1_545  S
O144       Mg186   2.156   1_545  S
O144       Mg169   2.154       .  S
O144        C165   1.236   1_545  S
O145        C176   1.270       .  A
O145       Mg169   2.298       .  S
C146        O148   1.274       .  A
C146        O160   1.279       .  A
C146        C409   1.500       .  S
O147        C175   1.269       .  A
O147       Mg149   2.297   1_655  S
O148       Mg180   2.276       .  S
Mg149       O155   2.150       .  S
Mg149       O163   2.282   1_455  S
Mg149       O151   2.290       .  S
C150        O188   1.276       .  A
C150        O156   1.278       .  A
C150        C246   1.499       .  S
O151        C158   1.275       .  A
H152        C165   1.081   1_545  S
C153        H178   1.081   1_655  S
C153        O167   1.236   1_655  S
C153        O168   1.270       .  A
O154        C177   1.272       .  A
O155       Mg169   2.162       .  S
O156       Mg186   2.319       .  S
C157        O170   1.273       .  A
C157        O162   1.276       .  A
C157        C438   1.494       .  S
C158        O185   1.272       .  A
C158        C198   1.495       .  S
Mg159       O166   2.159       .  S
Mg159       O167   2.150   1_655  S
Mg159       O160   2.328       .  S
Mg159       O161   2.303   1_655  S
Mg159       O188   2.296   1_655  S
O161        C165   1.271       .  A
O162       Mg169   2.305       .  S
O163        C182   1.273       .  A
O164        C184   1.277       .  A
O164       Mg180   2.307       .  S
O166       Mg180   2.158       .  S
O166        C177   1.237       .  S
O167       Mg186   2.140       .  S
O168       Mg180   2.296       .  S
Mg169       O185   2.275       .  S
O170       Mg186   2.274   1_545  S
H171        C176   1.081   1_655  S
O172       Mg180   2.155       .  S
O172        C175   1.235   1_565  S
H173        C175   1.081   1_565  S
H174        C177   1.081       .  S
O179       Mg186   2.300   1_545  S
C182        O187   1.280       .  A
C182        C390   1.506       .  S
O183        C184   1.273       .  A
C184        C222   1.489       .  S
C189        C190   1.408       .  A
C189        C194   1.400       .  A
C189        C203   1.443       .  S
C190        C191   1.399       .  A
C190        C195   1.482       .  S
C191        C192   1.400       .  A
C191        H210   1.085       .  S
C192        C193   1.419       .  A
C192        C204   1.441       .  S
C193        C194   1.408       .  A
C194        H209   1.084       .  S
C195        C196   1.401       .  A
C195        C200   1.406       .  A
C196        C197   1.403       .  A
C196        H211   1.085       .  S
C197        C198   1.421       .  A
C197        C201   1.444       .  S
C198        C199   1.410       .  A
C199        C200   1.397       .  A
C199        H212   1.084       .  S
C200        C202   1.445       .  S
C201        N205   1.157       .  T
C202        N206   1.157       .  T
C203        N208   1.157       .  T
C204        N207   1.157       .  T
C213        C214   1.412       .  A
C213        C218   1.400       .  A
C213        C227   1.444       .  S
C214        C215   1.403       .  A
C214        C219   1.488       .  S
C215        C216   1.399       .  A
C215        H234   1.085       .  S
C216        C217   1.414       .  A
C216        C228   1.442       .  S
C217        C218   1.404       .  A
C218        H233   1.084       .  S
C219        C220   1.400       .  A
C219        C224   1.412       .  A
C220        C221   1.398       .  A
C220        H235   1.085       .  S
C221        C222   1.417       .  A
C221        C225   1.440       .  S
C222        C223   1.407       .  A
C223        C224   1.401       .  A
C223        H236   1.085       .  S
C224        C226   1.444       .  S
C225        N229   1.156   1_565  T
C226        N230   1.157       .  T
C227        N232   1.157       .  T
C228        N231   1.157       .  T
C237        C238   1.413       .  A
C237        C242   1.405       .  A
C237        C251   1.443       .  S
C238        C239   1.404       .  A
C238        C243   1.495       .  S
C239        C240   1.402       .  A
C239        H258   1.085       .  S
C240        C241   1.415       .  A
C240        C252   1.443       .  S
C241        C242   1.405       .  A
C242        H257   1.084       .  S
C243        C244   1.404       .  A
C243        C248   1.411       .  A
C244        C245   1.406       .  A
C244        H259   1.085       .  S
C245        C246   1.420       .  A
C245        C249   1.444       .  S
C246        C247   1.409       .  A
C247        C248   1.403       .  A
C247        H260   1.084       .  S
C248        C250   1.444       .  S
C249        N253   1.157   1_455  T
C250        N254   1.157       .  T
C251        N256   1.157       .  T
C252        N255   1.157       .  T
C261        C262   1.409       .  A
C261        C266   1.402       .  A
C261        C275   1.444       .  S
C262        C263   1.401       .  A
C262        C267   1.489       .  S
C263        C264   1.403       .  A
C263        H282   1.085       .  S
C264        C265   1.421       .  A
C264        C276   1.444       .  S
C265        C266   1.410       .  A
C266        H281   1.084       .  S
C267        C268   1.404       .  A
C267        C272   1.411       .  A
C268        C269   1.405       .  A
C268        H283   1.085       .  S
C269        C270   1.414       .  A
C269        C273   1.442       .  S
C270        C271   1.405       .  A
C271        C272   1.399       .  A
C271        H284   1.084       .  S
C272        C274   1.444       .  S
C273        N277   1.157       .  T
C274        N278   1.157   1_556  T
C275        N280   1.157       .  T
C276        N279   1.157       .  T
C285        C286   1.408       .  A
C285        C290   1.403       .  A
C285        C299   1.443       .  S
C286        C287   1.400       .  A
C286        C291   1.486       .  S
C287        C288   1.403       .  A
C287        H306   1.085   1_556  S
C288        C289   1.421       .  A
C288        C300   1.445   1_556  S
C289        C290   1.409       .  A
C290        H305   1.084       .  S
C291        C292   1.403       .  A
C291        C296   1.409       .  A
C292        C293   1.403       .  A
C292        H307   1.085   1_556  S
C293        C294   1.414       .  A
C293        C297   1.442   1_556  S
C294        C295   1.406       .  A
C295        C296   1.402       .  A
C295        H308   1.084       .  S
C296        C298   1.443       .  S
C297        N301   1.157       .  T
C298        N302   1.157       .  T
C299        N304   1.157       .  T
C300        N303   1.158       .  T
C309        C310   1.414       .  A
C309        C314   1.407       .  A
C309        C323   1.444   1_556  S
C310        C311   1.405       .  A
C310        C315   1.502       .  S
C311        C312   1.406       .  A
C311        H330   1.085       .  S
C312        C313   1.417       .  A
C312        C324   1.442       .  S
C313        C314   1.409       .  A
C314        H329   1.084   1_556  S
C315        C316   1.405       .  A
C315        C320   1.414       .  A
C316        C317   1.406       .  A
C316        H331   1.085       .  S
C317        C318   1.418       .  A
C317        C321   1.444   1_556  S
C318        C319   1.409       .  A
C319        C320   1.407       .  A
C319        H332   1.084       .  S
C320        C322   1.443       .  S
C321        N325   1.157       .  T
C322        N326   1.157       .  T
C323        N328   1.157       .  T
C324        N327   1.157       .  T
C333        C334   1.406       .  A
C333        C338   1.399       .  A
C333        C347   1.444       .  S
C334        C335   1.399       .  A
C334        C339   1.482       .  S
C335        C336   1.402       .  A
C335        H354   1.086       .  S
C336        C337   1.422       .  A
C336        C348   1.443       .  S
C337        C338   1.409       .  A
C338        H353   1.079       .  S
C339        C340   1.399       .  A
C339        C344   1.403       .  A
C340        C341   1.404       .  A
C340        H355   1.085       .  S
C341        C342   1.425       .  A
C341        C345   1.445       .  S
C342        C343   1.410       .  A
C343        C344   1.399       .  A
C343        H356   1.073       .  S
C344        C346   1.445       .  S
C345        N349   1.157       .  T
C346        N350   1.157       .  T
C347        N352   1.157       .  T
C348        N351   1.157       .  T
C357        C358   1.407       .  A
C357        C362   1.401       .  A
C357        C371   1.444       .  S
C358        C359   1.401       .  A
C358        C363   1.488       .  S
C359        C360   1.401       .  A
C359        H378   1.085       .  S
C360        C361   1.421       .  A
C360        C372   1.444       .  S
C361        C362   1.412       .  A
C362        H377   1.077       .  S
C363        C364   1.402       .  A
C363        C368   1.406       .  A
C364        C365   1.404       .  A
C364        H379   1.085       .  S
C365        C366   1.424       .  A
C365        C369   1.443       .  S
C366        C367   1.410       .  A
C367        C368   1.398       .  A
C367        H380   1.080       .  S
C368        C370   1.444       .  S
C369        N373   1.158       .  T
C370        N374   1.157       .  T
C371        N376   1.157       .  T
C372        N375   1.157       .  T
C381        C382   1.412       .  A
C381        C386   1.405       .  A
C381        C395   1.443       .  S
C382        C383   1.404       .  A
C382        C387   1.497       .  S
C383        C384   1.404       .  A
C383        H402   1.085       .  S
C384        C385   1.419       .  A
C384        C396   1.443       .  S
C385        C386   1.407       .  A
C386        H401   1.084       .  S
C387        C388   1.404       .  A
C387        C392   1.410       .  A
C388        C389   1.408       .  A
C388        H403   1.085       .  S
C389        C390   1.422       .  A
C389        C393   1.443       .  S
C390        C391   1.408       .  A
C391        C392   1.402       .  A
C391        H404   1.078       .  S
C392        C394   1.445       .  S
C393        N397   1.157   1_655  T
C394        N398   1.157       .  T
C395        N400   1.157       .  T
C396        N399   1.158       .  T
C405        C406   1.413       .  A
C405        C410   1.404       .  A
C405        C419   1.444       .  S
C406        C407   1.402       .  A
C406        C411   1.496       .  S
C407        C408   1.404       .  A
C407        H426   1.085       .  S
C408        C409   1.421       .  A
C408        C420   1.444       .  S
C409        C410   1.409       .  A
C410        H425   1.084       .  S
C411        C412   1.406       .  A
C411        C416   1.412       .  A
C412        C413   1.408       .  A
C412        H427   1.085       .  S
C413        C414   1.417       .  A
C413        C417   1.442       .  S
C414        C415   1.407       .  A
C415        C416   1.400       .  A
C415        H428   1.083       .  S
C416        C418   1.444       .  S
C417        N421   1.157       .  T
C418        N422   1.157       .  T
C419        N424   1.157       .  T
C420        N423   1.157       .  T
C429        C430   1.409       .  A
C429        C434   1.398       .  A
C429        C443   1.444       .  S
C430        C431   1.406       .  A
C430        C435   1.486       .  S
C431        C432   1.406       .  A
C431        H450   1.084       .  S
C432        C433   1.410       .  A
C432        C444   1.442       .  S
C433        C434   1.405       .  A
C434        H449   1.084       .  S
C435        C436   1.402       .  A
C435        C440   1.408       .  A
C436        C437   1.404       .  A
C436        H451   1.085       .  S
C437        C438   1.419       .  A
C437        C441   1.444       .  S
C438        C439   1.409       .  A
C439        C440   1.401       .  A
C439        H452   1.084       .  S
C440        C442   1.444       .  S
C441        N445   1.157       .  T
C442        N446   1.157       .  T
C443        N448   1.157       .  T
C444        N447   1.157       .  T
C453        C454   1.412       .  A
C453        C458   1.405       .  A
C453        C467   1.444   1_554  S
C454        C455   1.401       .  A
C454        C459   1.489       .  S
C455        C456   1.401       .  A
C455        H474   1.085       .  S
C456        C457   1.416       .  A
C456        C468   1.443       .  S
C457        C458   1.406       .  A
C458        H473   1.084   1_554  S
C459        C460   1.403       .  A
C459        C464   1.411       .  A
C460        C461   1.403       .  A
C460        H475   1.085       .  S
C461        C462   1.415       .  A
C461        C465   1.444       .  S
C462        C463   1.406       .  A
C463        C464   1.403       .  A
C463        H476   1.085       .  S
C464        C466   1.444   1_554  S
C465        N469   1.157       .  T
C466        N470   1.157       .  T
C467        N472   1.157       .  T
C468        N471   1.157       .  T
C477        C478   1.409       .  A
C477        C482   1.399       .  A
C477        C491   1.444       .  S
C478        C479   1.403       .  A
C478        C483   1.482       .  S
C479        C480   1.399       .  A
C479        H498   1.085       .  S
C480        C481   1.411       .  A
C480        C492   1.443       .  S
C481        C482   1.405       .  A
C482        H497   1.084       .  S
C483        C484   1.400       .  A
C483        C488   1.409       .  A
C484        C485   1.399       .  A
C484        H499   1.085       .  S
C485        C486   1.420       .  A
C485        C489   1.444       .  S
C486        C487   1.410       .  A
C487        C488   1.400       .  A
C487        H500   1.084       .  S
C488        C490   1.445       .  S
C489        N493   1.157       .  T
C490        N494   1.157       .  T
C491        N496   1.157       .  T
C492        N495   1.157   1_554  T
C501        C502   1.410       .  A
C501        C506   1.400       .  A
C501        C515   1.444   1_554  S
C502        C503   1.403       .  A
C502        C507   1.489       .  S
C503        C504   1.405       .  A
C503        H522   1.085       .  S
C504        C505   1.417       .  A
C504        C516   1.444       .  S
C505        C506   1.407       .  A
C506        H521   1.084   1_554  S
C507        C508   1.404       .  A
C507        C512   1.411       .  A
C508        C509   1.403       .  A
C508        H523   1.085       .  S
C509        C510   1.411       .  A
C509        C513   1.443       .  S
C510        C511   1.403       .  A
C511        C512   1.403       .  A
C511        H524   1.084       .  S
C512        C514   1.443       .  S
C513        N517   1.157   1_554  T
C514        N518   1.157       .  T
C515        N520   1.157       .  T
C516        N519   1.157       .  T
C525        C526   1.409       .  A
C525        C530   1.401       .  A
C525        C539   1.445       .  S
C526        C527   1.402       .  A
C526        C531   1.491       .  S
C527        C528   1.400       .  A
C527        H546   1.085       .  S
C528        C529   1.421       .  A
C528        C540   1.445       .  S
C529        C530   1.409       .  A
C530        H545   1.075       .  S
C531        C532   1.404       .  A
C531        C536   1.409       .  A
C532        C533   1.404       .  A
C532        H547   1.085       .  S
C533        C534   1.421       .  A
C533        C537   1.444       .  S
C534        C535   1.408       .  A
C535        C536   1.396       .  A
C535        H548   1.075       .  S
C536        C538   1.445       .  S
C537        N541   1.157       .  T
C538        N542   1.157       .  T
C539        N544   1.157       .  T
C540        N543   1.157       .  T
C549        C550   1.403       .  A
C549        C554   1.396       .  A
C549        C563   1.445       .  S
C550        C551   1.401       .  A
C550        C555   1.482       .  S
C551        C552   1.406       .  A
C551        H570   1.085       .  S
C552        C553   1.422       .  A
C552        C564   1.443       .  S
C553        C554   1.412       .  A
C554        H569   1.079       .  S
C555        C556   1.399       .  A
C555        C560   1.406       .  A
C556        C557   1.404       .  A
C556        H571   1.085       .  S
C557        C558   1.424       .  A
C557        C561   1.445       .  S
C558        C559   1.407       .  A
C559        C560   1.397       .  A
C559        H572   1.075       .  S
C560        C562   1.445       .  S
C561        N565   1.157       .  T
C562        N566   1.157       .  T
C563        N568   1.157       .  T
C564        N567   1.157       .  T
