geometry optimzed in LAMMPS
_audit_creation_date              2020-12-01 
_audit_creation_method            'lammps2cif' 
_symmetry_space_group_name_H-M    'P1' 
_symmetry_Int_Tables_number       1 
_symmetry_cell_setting            triclinic 
loop_ 
_symmetry_equiv_pos_as_xyz 
  x,y,z 
_cell_length_a                    51.48616238 
_cell_length_b                    30.01330787751222 
_cell_length_c                    33.596135390383765 
_cell_angle_alpha                 89.39680856302294 
_cell_angle_beta                  107.16398055584239 
_cell_angle_gamma                 90.87064674503118 
loop_ 
_atom_site_label 
_atom_site_type_symbol 
_atom_site_fract_x 
_atom_site_fract_y 
_atom_site_fract_z 
_atom_site_charge 
C1          C  0.01073489  0.02201869  0.45104662     0.30100
C2          C  0.99539107  0.51288635  0.36611350     0.30100
C3          C  0.98910334  0.05678417  0.42638240    -0.06100
C4          C  0.03360879  0.03029648  0.42964104    -0.06900
C5          C  0.99842437  0.47469429  0.43178715    -0.06800
C6          C  0.98125983  0.04836522  0.38426567    -0.06100
C7          C  0.02526722  0.02643070  0.38535101    -0.06900
C8          C  0.99573268  0.47094235  0.39023391    -0.06800
C9          C  0.96530701  0.08128304  0.36323646    -0.32200
N10         N  0.96464109  0.11502483  0.38850251     0.14300
C11         C  0.98012711  0.10163879  0.42783703    -0.32200
H12         H  0.98645901  0.12343341  0.45449857     0.16300
C13         C  0.04842969  0.51748740  0.37471228    -0.31100
N14         N  0.07020790  0.52142629  0.40873317     0.13100
C15         C  0.06172147  0.52784724  0.44275106    -0.31100
C16         C  0.98939937  0.42861771  0.37658986    -0.31400
N17         N  0.98244724  0.40570880  0.40606059     0.13600
H18         H  0.98538861  0.41765445  0.34464972     0.16200
C19         C  0.98721837  0.43321954  0.44022327    -0.31400
H20         H  0.98228844  0.42449631  0.46850211     0.16200
H21         H  0.07491579  0.52872650  0.47445160     0.16200
H22         H  0.95714875  0.08269069  0.32956168     0.16300
H23         H  0.04975141  0.50666623  0.34485658     0.16200
O24         O  0.98710079  0.22626864  0.30646891    -0.80800
O25         O  0.89063613  0.21678940  0.37594577    -0.65500
O26         O  0.93508912  0.24198424  0.30560848    -1.12100
C27         C  0.96581255  0.36633450  0.39304703     1.06100
O28         O  0.87864272  0.28724475  0.37571142    -0.78700
O29         O  0.89646594  0.33889410  0.32424615    -0.66300
Ni30       Ni  0.95273755  0.19780450  0.28445832     1.34900
C31         C  0.90636325  0.33888462  0.29371309     0.84800
O32         O  0.89386057  0.18069434  0.30449836    -0.79300
O33         O  0.91841374  0.16767538  0.26023853    -0.89500
C34         C  0.87373640  0.24592820  0.37926086     0.84400
O35         O  0.96145349  0.16173924  0.33280274    -0.67700
O36         O  0.94137557  0.36600450  0.39486574    -0.87000
C37         C  0.95564247  0.15699905  0.36688609     0.85200
C38         C  0.89693821  0.16293188  0.27164687     1.06800
H39         H  0.94424350  0.26512132  0.40042072     0.38600
O40         O  0.93306465  0.27578021  0.37387624    -1.09700
O41         O  0.93127125  0.32972291  0.29978032    -0.66300
Ni42       Ni  0.95566683  0.28918187  0.33835903     1.26300
O43         O  0.93876908  0.18266010  0.37645933    -0.66600
O44         O  0.97469925  0.33678113  0.37330229    -0.78800
C45         C  0.99017738  0.26401228  0.29162857     0.84600
O46         O  0.97850828  0.29732824  0.30176852    -0.66000
Ni47       Ni  0.91104007  0.32371217  0.38280764     1.27400
Ni48       Ni  0.91371559  0.22684024  0.34122349     1.26100
H49         H  0.92267005  0.25436937  0.28110504     0.39100
C50         C  0.84758147  0.43348484  0.16232234     0.30100
C51         C  0.83995221  0.02231337  0.17584343     0.30100
C52         C  0.87156613  0.45901460  0.19093036    -0.06100
C53         C  0.84360314  0.46386421  0.12278842    -0.06900
C54         C  0.82147908  0.44583428  0.17391517    -0.06800
C55         C  0.86727316  0.00281775  0.19865770    -0.06100
C56         C  0.83861177  0.01061529  0.12941986    -0.06900
C57         C  0.81856727  0.99061591  0.18268382    -0.06800
C58         C  0.89225444  0.02426236  0.20975739    -0.32200
N59         N  0.91196118  0.49515279  0.21041973     0.14300
C60         C  0.89918634  0.45739973  0.19418114    -0.32200
H61         H  0.91006978  0.43144532  0.18471108     0.16300
C62         C  0.84976155  0.03456320  0.10309303    -0.31100
N63         N  0.86344491  0.50746116  0.08454012     0.13100
C64         C  0.85959748  0.46506315  0.09613719    -0.31100
C65         C  0.79116166  0.99956398  0.17242234    -0.31400
N66         N  0.77686074  0.46280191  0.15619950     0.13600
H67         H  0.78241155  0.03229681  0.17140555     0.16200
C68         C  0.79483856  0.43088642  0.15498043    -0.31400
H69         H  0.78906951  0.40174364  0.13573749     0.16200
H70         H  0.87144333  0.43769839  0.09117001     0.16200
H71         H  0.89621449  0.05869846  0.21879061     0.16300
H72         H  0.85065699  0.07014913  0.10119484     0.16200
C73         C  0.01999084  0.02142899  0.00051623     0.30100
C74         C  0.03242376  0.51117263  0.08558928     0.30100
C75         C  0.04375027  0.05195664  0.02655238    -0.06100
C76         C  0.99720431  0.03231870  0.02030673    -0.06900
C77         C  0.02931486  0.47350538  0.01920876    -0.06800
C78         C  0.05165870  0.04172594  0.06926412    -0.06100
C79         C  0.00429458  0.52840787  0.06364046    -0.06900
C80         C  0.03212700  0.46829681  0.06123899    -0.06800
C81         C  0.06948981  0.07374618  0.08927843    -0.32200
N82         N  0.06852411  0.10910331  0.06413402     0.14300
C83         C  0.05235300  0.09691832  0.02532679    -0.32200
H84         H  0.04489364  0.11981903  0.99952365     0.16300
C85         C  0.98090572  0.52814574  0.07475427    -0.31100
N86         N  0.95968745  0.53405880  0.04018425     0.13100
C87         C  0.96918700  0.53598656  0.00649628    -0.31100
C88         C  0.03734323  0.42432488  0.07156377    -0.31400
N89         N  0.04339487  0.40369123  0.04028662     0.13600
H90         H  0.03962062  0.40848654  0.10132116     0.16200
C91         C  0.03960979  0.43371991  0.00823570    -0.31400
H92         H  0.04460484  0.42767959  0.97966378     0.16200
H93         H  0.95645633  0.53715338  0.97453220     0.16200
H94         H  0.07998017  0.07463383  0.12197252     0.16300
H95         H  0.97918901  0.52153452  0.10563237     0.16200
O96         O  0.04388544  0.22105227  0.14534657    -0.80800
O97         O  0.13570087  0.22018258  0.06594277    -0.65500
O98         O  0.09404482  0.24135208  0.13897021    -1.12100
C99         C  0.05896227  0.36333077  0.04927190     1.06100
O100        O  0.14676625  0.29126658  0.06496071    -0.78700
O101        O  0.12675930  0.34684214  0.10682271    -0.66300
Ni102      Ni  0.07935542  0.19630193  0.16493969     1.34900
C103        C  0.12025638  0.34558930  0.14036252     0.84800
O104        O  0.13584321  0.18510915  0.13864570    -0.79300
O105        O  0.11511187  0.17227374  0.18791007    -0.89500
C106        C  0.15344916  0.25043482  0.06862927     0.84400
O107        O  0.07121988  0.15598596  0.11930072    -0.67700
O108        O  0.08071017  0.36090697  0.03843041    -0.87000
C109        C  0.07596136  0.15194664  0.08431558     0.85200
C110        C  0.13570235  0.17017740  0.17420410     1.06800
H111        H  0.08037525  0.26142239  0.04324666     0.38600
O112        O  0.09260798  0.27430921  0.06831317    -1.09700
O113        O  0.09787288  0.32828112  0.14152973    -0.66300
Ni114      Ni  0.07218197  0.28691968  0.10654631     1.26300
O115        O  0.08979227  0.18097158  0.07089120    -0.66600
O116        O  0.05235046  0.33468626  0.07327842    -0.78800
C117        C  0.04076402  0.25952085  0.15847669     0.84600
O118        O  0.05152400  0.29335919  0.14590168    -0.66000
Ni119      Ni  0.11240353  0.32275014  0.05215080     1.27400
Ni120      Ni  0.11399043  0.22811935  0.10191326     1.26100
H121        H  0.10714773  0.25521349  0.16239073     0.39100
C122        C  0.18221598  0.45125593  0.26460544     0.30100
C123        C  0.19137794  0.04119612  0.26360798     0.30100
C124        C  0.16243568  0.47754881  0.22997532    -0.06100
C125        C  0.17894323  0.47660051  0.30323913    -0.06900
C126        C  0.21094706  0.46657841  0.26585588    -0.06800
C127        C  0.16660808  0.02317591  0.22906906    -0.06100
C128        C  0.18504926  0.02316420  0.30368621    -0.06900
C129        C  0.21532441  0.01219046  0.26382350    -0.06800
C130        C  0.14068549  0.04204359  0.21403140    -0.32200
N131        N  0.12147136  0.50964080  0.20643067     0.14300
C132        C  0.13473342  0.47143070  0.21817621    -0.32200
H133        H  0.12409388  0.44183141  0.22261176     0.16300
C134        C  0.17323578  0.04248804  0.33082906    -0.31100
N135        N  0.15810089  0.51204754  0.34404258     0.13100
C136        C  0.16018003  0.47290523  0.32530814    -0.31100
C137        C  0.24229522  0.02047079  0.28520530    -0.31400
N138        N  0.25423843  0.48202825  0.30031025     0.13600
H139        H  0.25193531  0.05294666  0.29214745     0.16200
C140        C  0.23525472  0.44947211  0.29088573    -0.31400
H141        H  0.23837635  0.41611428  0.30382679     0.16200
H142        H  0.14651978  0.44524876  0.32422874     0.16200
H143        H  0.13616735  0.07691780  0.21228012     0.16300
H144        H  0.17477686  0.07682660  0.33912780     0.16200
C145        C  0.51996059  0.25629850  0.00919693     0.30100
C146        C  0.53915307  0.24546173  0.09280028     0.30100
C147        C  0.54303074  0.29062055  0.03150990    -0.06100
C148        C  0.49890787  0.26434939  0.03359840    -0.06900
C149        C  0.53173453  0.20823582  0.02618403    -0.06800
C150        C  0.55324613  0.28069329  0.07319278    -0.06100
C151        C  0.50936680  0.26081184  0.07788761    -0.06900
C152        C  0.53623418  0.20346755  0.06804416    -0.06800
C153        C  0.56941117  0.31440074  0.09366197    -0.32200
N154        N  0.56736608  0.34993300  0.06892738     0.14300
C155        C  0.54991044  0.33710232  0.03075814    -0.32200
H156        H  0.54068051  0.36012803  0.00579169     0.16300
C157        C  0.48763106  0.24765161  0.09139862    -0.31100
N158        N  0.46486739  0.24405625  0.05872800     0.13100
C159        C  0.47169065  0.25234492  0.02341546    -0.31100
C160        C  0.54361196  0.16122130  0.08096169    -0.31400
N161        N  0.55017045  0.14000965  0.05061165     0.13600
H162        H  0.54896267  0.14981242  0.11307853     0.16200
C163        C  0.54329849  0.16823839  0.01629603    -0.31400
H164        H  0.54735759  0.16148057  0.98713889     0.16200
H165        H  0.45849380  0.24562051  0.99239791     0.16200
H166        H  0.57866521  0.31543138  0.12716043     0.16300
H167        H  0.48875961  0.23666940  0.12255164     0.16200
O168        O  0.54229084  0.46354388  0.14866962    -0.80800
O169        O  0.64356142  0.45190721  0.09186234    -0.65500
O170        O  0.59524964  0.47530762  0.15440254    -1.12100
C171        C  0.56706981  0.10078744  0.06302421     1.06100
O172        O  0.65465776  0.02328609  0.08749007    -0.78700
O173        O  0.63480407  0.07950683  0.12925115    -0.66300
Ni174      Ni  0.57497220  0.43129355  0.17220453     1.34900
C175        C  0.62812763  0.07518281  0.16263683     0.84800
O176        O  0.63635560  0.41569918  0.16140281    -0.79300
O177        O  0.60794536  0.39856739  0.19903940    -0.89500
C178        C  0.66113159  0.48218937  0.09249436     0.84400
O179        O  0.56623583  0.39627802  0.12273898    -0.67700
O180        O  0.59005283  0.09822821  0.05568248    -0.87000
C181        C  0.57494144  0.39178701  0.09120194     0.85200
C182        C  0.63121690  0.39640634  0.19252997     1.06800
H183        H  0.58818944  0.99765489  0.06103503     0.38600
O184        O  0.59979452  0.00966358  0.08692051    -1.09700
O185        O  0.60433690  0.06139200  0.16128670    -0.66300
Ni186      Ni  0.57733427  0.02432201  0.12169537     1.26300
O187        O  0.59419399  0.41644585  0.08587497    -0.66600
O188        O  0.56007911  0.07347855  0.08756313    -0.78800
C189        C  0.53945047  0.50116828  0.16347561     0.84600
O190        O  0.55406410  0.03336502  0.15675194    -0.66000
Ni191      Ni  0.62119345  0.05750232  0.07314940     1.27400
Ni192      Ni  0.61818673  0.46111529  0.12221330     1.26100
H193        H  0.60727220  0.48632920  0.18013751     0.39100
C194        C  0.68974823  0.17001799  0.29638245     0.30100
C195        C  0.69194931  0.26182497  0.29282261     0.30100
C196        C  0.66709434  0.19341009  0.26368998    -0.06100
C197        C  0.68613993  0.19341534  0.33592231    -0.06900
C198        C  0.71712735  0.19158606  0.29654749    -0.06800
C199        C  0.66899100  0.23927492  0.26056327    -0.06100
C200        C  0.68628887  0.24194181  0.33325436    -0.06900
C201        C  0.71787232  0.23772650  0.29266845    -0.06800
C202        C  0.64279608  0.25498599  0.24755804    -0.32200
N203        N  0.62505904  0.22114552  0.24276805     0.14300
C204        C  0.63946104  0.18419862  0.25504062    -0.32200
H205        H  0.62968043  0.15285675  0.25701073     0.16300
C206        C  0.66653512  0.25463182  0.35111388    -0.31100
N207        N  0.65688484  0.21909805  0.36768972     0.13100
C208        C  0.66859209  0.18210408  0.35871440    -0.31100
C209        C  0.74445956  0.25133882  0.31138841    -0.31400
N210        N  0.76001509  0.21601199  0.32858726     0.13600
H211        H  0.75132826  0.28569864  0.31456131     0.16200
C212        C  0.74298854  0.18008979  0.32159973    -0.31400
H213        H  0.74792025  0.14828454  0.33721007     0.16200
H214        H  0.66285725  0.14898558  0.36529633     0.16200
H215        H  0.63671896  0.28919457  0.24141555     0.16300
H216        H  0.65666560  0.28652167  0.34690408     0.16200
C217        C  0.50777412  0.25747506  0.46075550     0.30100
C218        C  0.48805867  0.25235985  0.37686165     0.30100
C219        C  0.48418420  0.29071542  0.44079220    -0.06100
C220        C  0.52822441  0.27155974  0.43675207    -0.06900
C221        C  0.49716512  0.20952492  0.44122942    -0.06800
C222        C  0.47365929  0.28383198  0.39861607    -0.06100
C223        C  0.51768980  0.27041736  0.39220595    -0.06900
C224        C  0.49228404  0.20846344  0.39921377    -0.06800
C225        C  0.45818455  0.31888578  0.38015279    -0.32200
N226        N  0.46109351  0.35229073  0.40696181     0.14300
C227        C  0.47850429  0.33685652  0.44403323    -0.32200
H228        H  0.48872378  0.35817010  0.46983180     0.16300
C229        C  0.53976625  0.26038657  0.37870734    -0.31100
N230        N  0.56245857  0.25712670  0.41159118     0.13100
C231        C  0.55556851  0.26259124  0.44689644    -0.31100
C232        C  0.48619781  0.16639911  0.38392795    -0.31400
N233        N  0.48100019  0.14074730  0.41337841     0.13600
H234        H  0.48053775  0.15773494  0.35119699     0.16200
C235        C  0.48747690  0.16638909  0.44915366    -0.31400
H236        H  0.48399528  0.15580867  0.47805957     0.16200
H237        H  0.56869723  0.25445882  0.47764616     0.16200
H238        H  0.44946903  0.32282594  0.34673745     0.16300
H239        H  0.53884071  0.24965313  0.34772847     0.16200
O240        O  0.48588538  0.46490488  0.31359631    -0.80800
O241        O  0.38559012  0.45589116  0.37974192    -0.65500
O242        O  0.43369019  0.47084723  0.31467051    -1.12100
C243        C  0.46359512  0.10164683  0.39984228     1.06100
O244        O  0.37621060  0.02765196  0.37660983    -0.78700
O245        O  0.39852470  0.08743472  0.33968895    -0.66300
Ni246      Ni  0.45514441  0.42507454  0.30442432     1.34900
C247        C  0.39989211  0.07495987  0.30416676     0.84800
O248        O  0.39142281  0.41457725  0.31289446    -0.79300
O249        O  0.42365172  0.38453200  0.28889271    -0.89500
C250        C  0.36865795  0.48721589  0.37447704     0.84400
O251        O  0.46837580  0.40622757  0.36181550    -0.67700
O252        O  0.44368477  0.09451671  0.41444212    -0.87000
C253        C  0.45521236  0.39577678  0.38727078     0.85200
C254        C  0.39879517  0.38830161  0.28885035     1.06800
H255        H  0.44341097  0.99906739  0.40564525     0.38600
O256        O  0.43080951  0.01010315  0.38023440    -1.09700
O257        O  0.42025681  0.05324421  0.30168591    -0.66300
Ni258      Ni  0.45054880  0.02416559  0.34118817     1.26300
O259        O  0.43286867  0.41495323  0.38584679    -0.66600
O260        O  0.46676330  0.07887017  0.36930636    -0.78800
C261        C  0.48370335  0.50074375  0.29225940     0.84600
O262        O  0.46992507  0.03253070  0.30035710    -0.66000
Ni263      Ni  0.41074043  0.05848157  0.39413460     1.27400
Ni264      Ni  0.41090041  0.46062355  0.34860789     1.26100
H265        H  0.42183818  0.47796512  0.28728642     0.39100
C266        C  0.33538021  0.16872894  0.17674222     0.30100
C267        C  0.33600948  0.26027327  0.18108819     0.30100
C268        C  0.35918366  0.19081240  0.20926749    -0.06100
C269        C  0.33893177  0.19261040  0.13686404    -0.06900
C270        C  0.30877564  0.19104835  0.17803122    -0.06800
C271        C  0.35867972  0.23653739  0.21176433    -0.06100
C272        C  0.34050863  0.24118661  0.13992934    -0.06900
C273        C  0.30959559  0.23735328  0.18081032    -0.06800
C274        C  0.38509940  0.25193809  0.22294338    -0.32200
N275        N  0.40204171  0.21794518  0.22884042     0.14300
C276        C  0.38671263  0.18097725  0.21838339    -0.32200
H277        H  0.39583802  0.14940997  0.21787149     0.16300
C278        C  0.36068414  0.25302764  0.12193233    -0.31100
N279        N  0.36912878  0.21698460  0.10543351     0.13100
C280        C  0.35586372  0.18071813  0.11382339    -0.31100
C281        C  0.28385984  0.25286139  0.16138330    -0.31400
N282        N  0.26706881  0.21818688  0.14646271     0.13600
H283        H  0.27831753  0.28746987  0.15524875     0.16200
C284        C  0.28204892  0.18062862  0.15477189    -0.31400
H285        H  0.27462902  0.14823832  0.14220311     0.16200
H286        H  0.36042597  0.14741826  0.10712012     0.16200
H287        H  0.39195087  0.28614002  0.22746850     0.16300
H288        H  0.37157535  0.28447457  0.12609514     0.16200
C289        C  0.37161765  0.36936191  0.21467027    -0.01800
C290        C  0.37686114  0.36255905  0.25820548     0.07900
C291        C  0.35848416  0.33590736  0.27188442    -0.01900
C292        C  0.33818412  0.31086225  0.24292010    -0.01900
C293        C  0.33823188  0.30807406  0.20008378     0.08000
C294        C  0.35185915  0.34285022  0.18570556    -0.02100
Br295      Br  0.34049431  0.35780328  0.12746742    -0.00600
Br296      Br  0.39101186  0.41559639  0.19475884    -0.00700
Br297      Br  0.31438709  0.27433503  0.26533227    -0.00700
Br298      Br  0.36283934  0.33026186  0.33098729    -0.00600
C299        C  0.35081359  0.09929571  0.26586606    -0.01800
C300        C  0.37679233  0.08521411  0.26418379     0.07900
C301        C  0.37815783  0.07503602  0.22311045    -0.01900
C302        C  0.35777415  0.09093582  0.18695438    -0.01900
C303        C  0.33653400  0.11830694  0.19070724     0.08000
C304        C  0.33028168  0.11083882  0.22880575    -0.02100
Br305      Br  0.29301600  0.11129070  0.22957614    -0.00600
Br306      Br  0.34121649  0.10070643  0.31731511    -0.00700
Br307      Br  0.35409660  0.06523239  0.13347996    -0.00700
Br308      Br  0.40834564  0.04381858  0.21382670    -0.00600
C309        C  0.46987401  0.25374395  0.29581415    -0.01800
C310        C  0.46685336  0.24330397  0.33521396     0.07900
C311        C  0.44127760  0.22454645  0.33783855    -0.01900
C312        C  0.42118940  0.21321324  0.30238363    -0.01900
C313        C  0.42545631  0.21977134  0.26352297     0.08000
C314        C  0.44937210  0.24035594  0.25987731    -0.02100
Br315      Br  0.45231106  0.25358733  0.20512293    -0.00600
Br316      Br  0.49803265  0.29366613  0.28985178    -0.00700
Br317      Br  0.38561651  0.19604410  0.30765181    -0.00700
Br318      Br  0.43105054  0.21527921  0.38965551    -0.00600
C319        C  0.61112538  0.19432136  0.37200247    -0.01800
C320        C  0.63484804  0.22143477  0.38598016     0.07900
C321        C  0.63586097  0.25451336  0.41600522    -0.01900
C322        C  0.61208165  0.26636456  0.42551086    -0.01900
C323        C  0.58807254  0.24123777  0.40911039     0.08000
C324        C  0.58876120  0.20231401  0.38663940    -0.02100
Br325      Br  0.55925614  0.15946848  0.37764838    -0.00600
Br326      Br  0.60670598  0.14995378  0.32946684    -0.00700
Br327      Br  0.61209707  0.31856759  0.45842866    -0.00700
Br328      Br  0.67003017  0.28303320  0.44438068    -0.00600
C329        C  0.52200636  0.54344568  0.21651390    -0.01800
C330        C  0.52120128  0.50526686  0.19127893     0.07900
C331        C  0.50468515  0.96835015  0.19625834    -0.01900
C332        C  0.49282275  0.96712497  0.22918215    -0.01900
C333        C  0.49560855  0.50364726  0.25645832     0.08000
C334        C  0.50901700  0.54265050  0.24838934    -0.02100
Br335      Br  0.51058145  0.59505022  0.28200720    -0.00600
Br336      Br  0.54043825  0.59795891  0.20839079    -0.00700
Br337      Br  0.47130477  0.91521532  0.23471327    -0.00700
Br338      Br  0.49608534  0.91937949  0.15688790    -0.00600
C339        C  0.67206007  0.34561013  0.20819994    -0.01800
C340        C  0.65364595  0.37053419  0.22273209     0.07900
C341        C  0.65837048  0.37266971  0.26669776    -0.01900
C342        C  0.67772922  0.34431295  0.29406638    -0.01900
C343        C  0.69106770  0.31158392  0.27783075     0.08000
C344        C  0.69194589  0.31920537  0.23611806    -0.02100
Br345      Br  0.71806510  0.28983717  0.21453645    -0.00600
Br346      Br  0.66832196  0.34214474  0.14922088    -0.00700
Br347      Br  0.69112630  0.35713606  0.35264254    -0.00700
Br348      Br  0.63907439  0.41471186  0.29007593    -0.00600
C349        C  0.64529905  0.07768502  0.24429866    -0.01800
C350        C  0.64945564  0.08613921  0.20451564     0.07900
C351        C  0.67653381  0.09929167  0.20620534    -0.01900
C352        C  0.69538616  0.11269405  0.24437726    -0.01900
C353        C  0.68727851  0.11998320  0.28089048     0.08000
C354        C  0.66471064  0.09298595  0.28195084    -0.02100
Br355      Br  0.66465845  0.06776399  0.33457862    -0.00600
Br356      Br  0.61344350  0.04649949  0.24952464    -0.00700
Br357      Br  0.73326733  0.11397954  0.24731530    -0.00700
Br358      Br  0.69008328  0.09741540  0.15801496    -0.00600
C359        C  0.43690264  0.19386654  0.08824365    -0.01800
C360        C  0.43868798  0.23017243  0.06217377     0.07900
C361        C  0.41544049  0.25618035  0.04453286    -0.01900
C362        C  0.39164881  0.24836234  0.05613374    -0.01900
C363        C  0.39154820  0.21730224  0.08781325     0.08000
C364        C  0.41414654  0.18886353  0.10298703    -0.02100
Br365      Br  0.41616157  0.14557138  0.14644055    -0.00600
Br366      Br  0.46553706  0.15023566  0.10282958    -0.00700
Br367      Br  0.35877707  0.27977362  0.02835027    -0.00700
Br368      Br  0.41633024  0.30468711  0.00689065    -0.00600
C369        C  0.55628915  0.24821078  0.17386620    -0.01800
C370        C  0.55958981  0.23632155  0.13505519     0.07900
C371        C  0.58574287  0.22048415  0.13359221    -0.01900
C372        C  0.60584291  0.21150083  0.16965591    -0.01900
C373        C  0.60170999  0.22086341  0.20795486     0.08000
C374        C  0.57735772  0.23925070  0.21048953    -0.02100
Br375      Br  0.57444700  0.25548658  0.26433939    -0.00600
Br376      Br  0.52749687  0.28641696  0.17778535    -0.00700
Br377      Br  0.64115471  0.19311739  0.16551408    -0.00700
Br378      Br  0.59755173  0.21613827  0.08281665    -0.00600
C379        C  0.29995012  0.47158147  0.29568249    -0.01800
C380        C  0.28260885  0.47653745  0.32044256     0.07900
C381        C  0.29331697  0.48084033  0.36384684    -0.01900
C382        C  0.32173357  0.48142601  0.38247409    -0.01900
C383        C  0.33927490  0.47802608  0.35737053     0.08000
C384        C  0.32812557  0.47425929  0.31368204    -0.02100
Br385      Br  0.35046588  0.48070566  0.27699559    -0.00600
Br386      Br  0.28457306  0.46382549  0.23637241    -0.00700
Br387      Br  0.33658886  0.49077013  0.44151471    -0.00700
Br388      Br  0.26873167  0.48789583  0.39669951    -0.00600
C389        C  0.19388037  0.24306843  0.13100507    -0.01800
C390        C  0.18261563  0.23968637  0.08731912     0.07900
C391        C  0.19959029  0.22825219  0.06295826    -0.01900
C392        C  0.22762874  0.22072362  0.08231522    -0.01900
C393        C  0.23833367  0.22206853  0.12612342     0.08000
C394        C  0.22124758  0.23278336  0.15023488    -0.02100
Br395      Br  0.23593762  0.23437461  0.21009136    -0.00600
Br396      Br  0.17264407  0.26485852  0.16505692    -0.00700
Br397      Br  0.25191699  0.21216075  0.04926133    -0.00700
Br398      Br  0.18463616  0.22502598  0.00333716    -0.00600
C399        C  0.18633621  0.38841316  0.21811776    -0.01800
C400        C  0.17819182  0.40046609  0.25345433     0.07900
C401        C  0.15449423  0.37806567  0.25590658    -0.01900
C402        C  0.13481221  0.36230774  0.21929966    -0.01900
C403        C  0.14024847  0.36363539  0.17991732     0.08000
C404        C  0.16700969  0.37684278  0.18038102    -0.02100
Br405      Br  0.17910059  0.38181963  0.13094123    -0.00600
Br406      Br  0.22401623  0.37854084  0.22231221    -0.00700
Br407      Br  0.09900618  0.35049982  0.22404649    -0.00700
Br408      Br  0.15224065  0.35978766  0.30967345    -0.00600
C409        C  0.19752309  0.09716636  0.21115491    -0.01800
C410        C  0.19651773  0.08986681  0.25258959     0.07900
C411        C  0.18698904  0.12539056  0.27087515    -0.01900
C412        C  0.16853563  0.15532434  0.24493129    -0.01900
C413        C  0.16073013  0.14950237  0.20115155     0.08000
C414        C  0.17735880  0.12329467  0.18418280    -0.02100
Br415      Br  0.17064660  0.11688475  0.12473754    -0.00600
Br416      Br  0.22241651  0.56567243  0.18870299    -0.00700
Br417      Br  0.15607825  0.20592665  0.26869069    -0.00700
Br418      Br  0.20694570  0.14174032  0.32680648    -0.00600
C419        C  0.08055012  0.47212206  0.16419434    -0.01800
C420        C  0.09229641  0.50990959  0.18741415     0.07900
C421        C  0.07450700  0.04520255  0.18922496    -0.01900
C422        C  0.04783928  0.04479382  0.15987951    -0.01900
C423        C  0.03976884  0.50725728  0.13354383     0.08000
C424        C  0.05262346  0.46858832  0.15084196    -0.02100
Br425      Br  0.03610802  0.43528553  0.18594593    -0.00600
Br426      Br  0.09933344  0.44633037  0.12880892    -0.00700
Br427      Br  0.02531589  0.09653290  0.15080790    -0.00700
Br428      Br  0.08615596  0.09460947  0.22589511    -0.00600
C429        C  0.73498443  0.96261309  0.09569388    -0.01800
C430        C  0.74767846  0.46110207  0.13904340     0.07900
C431        C  0.73166089  0.46284099  0.16628476    -0.01900
C432        C  0.70347595  0.46929399  0.15075364    -0.01900
C433        C  0.69055061  0.47119410  0.10733684     0.08000
C434        C  0.70638296  0.96691046  0.07977926    -0.02100
Br435      Br  0.68908110  0.96810406  0.02057435    -0.00600
Br436      Br  0.75716477  0.96134373  0.05853212    -0.00700
Br437      Br  0.68332283  0.47977546  0.18975351    -0.00700
Br438      Br  0.74889787  0.45673693  0.22535848    -0.00600
C439        C  0.90321844  0.05657501  0.08369529    -0.01800
C440        C  0.88466396  0.52112134  0.06637124     0.07900
C441        C  0.88908151  0.49586050  0.03355182    -0.01900
C442        C  0.91344672  0.50107746  0.02286134    -0.01900
C443        C  0.93208666  0.53500141  0.04142564     0.08000
C444        C  0.92560737  0.06487689  0.06883819    -0.02100
Br445      Br  0.94922623  0.11597630  0.08798146    -0.00600
Br446      Br  0.90215868  0.09099451  0.13154855    -0.00700
Br447      Br  0.92253936  0.45875173  0.98643916    -0.00700
Br448      Br  0.86206827  0.45342889  0.00337294    -0.00600
C449        C  0.83527837  0.18976569  0.36876042    -0.01800
C450        C  0.84595904  0.23236374  0.38161379     0.07900
C451        C  0.82808652  0.26364394  0.39026003    -0.01900
C452        C  0.79972969  0.25511599  0.37771554    -0.01900
C453        C  0.78878664  0.21786258  0.35229081     0.08000
C454        C  0.80713416  0.18367218  0.35005748    -0.02100
Br455      Br  0.79588353  0.12937914  0.31962531    -0.00600
Br456      Br  0.85805419  0.13857729  0.38485538    -0.00700
Br457      Br  0.77655464  0.29160742  0.39944486    -0.00700
Br458      Br  0.84239858  0.31587178  0.42295120    -0.00600
C459        C  0.03182985  0.26469261  0.26702073    -0.01800
C460        C  0.00333763  0.26649649  0.25779896     0.07900
C461        C  0.98722837  0.26181899  0.21590141    -0.01900
C462        C  0.99931392  0.26358338  0.18327720    -0.01900
C463        C  0.02779393  0.26348378  0.19237414     0.08000
C464        C  0.04388134  0.26086403  0.23448943    -0.02100
Br465      Br  0.08170221  0.24538341  0.24771452    -0.00600
Br466      Br  0.05409712  0.26323124  0.32433497    -0.00700
Br467      Br  0.97687240  0.26324445  0.12612426    -0.00700
Br468      Br  0.94951695  0.24403414  0.20351276    -0.00600
C469        C  0.84671545  0.06683208  0.24239084    -0.01800
C470        C  0.83970876  0.06784409  0.19773857     0.07900
C471        C  0.84376874  0.10877070  0.17945174    -0.01900
C472        C  0.86208101  0.14103285  0.20348487    -0.01900
C473        C  0.87487694  0.13339491  0.24648387     0.08000
C474        C  0.86642989  0.09673672  0.26590754    -0.02100
Br475      Br  0.88659546  0.08121628  0.32243994    -0.00600
Br476      Br  0.83436128  0.01989202  0.27266477    -0.00700
Br477      Br  0.86995654  0.19494201  0.17742591    -0.00700
Br478      Br  0.81895023  0.62510770  0.12665150    -0.00600
C479        C  0.84263665  0.35991895  0.19923137    -0.01800
C480        C  0.85384326  0.38171085  0.17024127     0.07900
C481        C  0.88020496  0.36570232  0.17408629    -0.01900
C482        C  0.89821040  0.35460365  0.21430018    -0.01900
C483        C  0.88804592  0.34926443  0.24945561     0.08000
C484        C  0.85914318  0.34850654  0.23984102    -0.02100
Br485      Br  0.84068698  0.32766204  0.27907988    -0.00600
Br486      Br  0.80882567  0.32781758  0.17801879    -0.00700
Br487      Br  0.93654323  0.35253229  0.21974081    -0.00700
Br488      Br  0.89161045  0.35935834  0.12498013    -0.00600
C489        C  0.12439169  0.05906469  0.36543567    -0.01800
C490        C  0.14003047  0.51962319  0.36926183     0.07900
C491        C  0.13597668  0.48528525  0.39634427    -0.01900
C492        C  0.11341443  0.48628366  0.41178855    -0.01900
C493        C  0.09725040  0.52424016  0.40561046     0.08000
C494        C  0.10430242  0.06185126  0.38591179    -0.02100
Br495      Br  0.08368008  0.11562818  0.38364575    -0.00600
Br496      Br  0.12663306  0.10839418  0.32923416    -0.00700
Br497      Br  0.10265504  0.43433433  0.43741389    -0.00700
Br498      Br  0.16143978  0.43725298  0.41355348    -0.00600
C499        C  0.98110252  0.51711882  0.28411707    -0.01800
C500        C  0.97614300  0.50479037  0.32214871     0.07900
C501        C  0.94922245  0.98883833  0.32094577    -0.01900
C502        C  0.93032793  0.97908571  0.28368857    -0.01900
C503        C  0.93493998  0.49314697  0.24638104     0.08000
C504        C  0.96009024  0.51183199  0.24629452    -0.02100
Br505      Br  0.96465738  0.53189098  0.19410463    -0.00600
Br506      Br  0.01341186  0.54886339  0.28240226    -0.00700
Br507      Br  0.89654923  0.95063788  0.28560896    -0.00700
Br508      Br  0.93476792  0.98474778  0.36933148    -0.00600
C509        C  0.01081116  0.02221023  0.95115818     0.30100
C510        C  0.99545968  0.51306500  0.86629888     0.30100
C511        C  0.98914613  0.05695334  0.92653215    -0.06100
C512        C  0.03366197  0.03056155  0.92971736    -0.06900
C513        C  0.99848751  0.47489067  0.93196901    -0.06800
C514        C  0.98127072  0.04853072  0.88441695    -0.06100
C515        C  0.02528910  0.02669178  0.88541883    -0.06900
C516        C  0.99576906  0.47113802  0.89041249    -0.06800
C517        C  0.96530695  0.08144479  0.86339936    -0.32200
N518        N  0.96469110  0.11521479  0.88865700     0.14300
C519        C  0.98021392  0.10184022  0.92797553    -0.32200
H520        H  0.98660633  0.12366248  0.95461087     0.16300
C521        C  0.04846076  0.51721032  0.87487052    -0.31100
N522        N  0.07026349  0.52104165  0.90885920     0.13100
C523        C  0.06181546  0.52768733  0.94288217    -0.31100
C524        C  0.98944912  0.42881202  0.87677445    -0.31400
N525        N  0.98254447  0.40588243  0.90627398     0.13600
H526        H  0.98542983  0.41784534  0.84483373     0.16200
C527        C  0.98732403  0.43339201  0.94043683    -0.31400
H528        H  0.98243928  0.42464076  0.96874522     0.16200
H529        H  0.07502104  0.52855925  0.97457669     0.16200
H530        H  0.95712980  0.08284760  0.82972666     0.16300
H531        H  0.04972628  0.50626677  0.84501928     0.16200
O532        O  0.98722458  0.22648331  0.80671514    -0.80800
O533        O  0.89074064  0.21698142  0.87599899    -0.65500
O534        O  0.93521726  0.24221143  0.80574371    -1.12100
C535        C  0.96593024  0.36648678  0.89328815     1.06100
O536        O  0.87872242  0.28740812  0.87591667    -0.78700
O537        O  0.89660776  0.33909406  0.82446953    -0.66300
Ni538      Ni  0.95287712  0.19801516  0.78462190     1.34900
C539        C  0.90651584  0.33912096  0.79394549     0.84800
O540        O  0.89397009  0.18091969  0.80452854    -0.79300
O541        O  0.91855725  0.16789357  0.76031817    -0.89500
C542        C  0.87382061  0.24606116  0.87934243     0.84400
O543        O  0.96156085  0.16191264  0.83295298    -0.67700
O544        O  0.94149065  0.36614659  0.89509618    -0.87000
C545        C  0.95572902  0.15719278  0.86702294     0.85200
C546        C  0.89706611  0.16315348  0.77168522     1.06800
H547        H  0.94433423  0.26525827  0.90056604     0.38600
O548        O  0.93316731  0.27595227  0.87403207    -1.09700
O549        O  0.93142475  0.32996829  0.80001132    -0.66300
Ni550      Ni  0.95579627  0.28937744  0.83855849     1.26300
O551        O  0.93884985  0.18286720  0.87655834    -0.66600
O552        O  0.97482920  0.33693822  0.87355435    -0.78800
C553        C  0.99030217  0.26421075  0.79184840     0.84600
O554        O  0.97865509  0.29754512  0.80199967    -0.66000
Ni555      Ni  0.91114638  0.32386871  0.88302018     1.27400
Ni556      Ni  0.91382064  0.22705532  0.84130935     1.26100
H557        H  0.92281476  0.25462100  0.78123456     0.39100
C558        C  0.84769380  0.43364859  0.66256636     0.30100
C559        C  0.84004235  0.02247139  0.67603569     0.30100
C560        C  0.87166388  0.45918179  0.69119114    -0.06100
C561        C  0.84371879  0.46405536  0.62304720    -0.06900
C562        C  0.82157957  0.44594601  0.67413767    -0.06800
C563        C  0.86736342  0.00296974  0.69885364    -0.06100
C564        C  0.83872285  0.01082777  0.62962428    -0.06900
C565        C  0.81864508  0.99076649  0.68282845    -0.06800
C566        C  0.89234368  0.02441696  0.70991299    -0.32200
N567        N  0.91204547  0.49537096  0.71061726     0.14300
C568        C  0.89927729  0.45761389  0.69438059    -0.32200
H569        H  0.91015188  0.43169906  0.68482981     0.16300
C570        C  0.84990259  0.03483211  0.60337800    -0.31100
N571        N  0.86359910  0.50771206  0.58490572     0.13100
C572        C  0.85973273  0.46529273  0.59642639    -0.31100
C573        C  0.79123147  0.99970747  0.67242018    -0.31400
N574        N  0.77694694  0.46283025  0.65626509     0.13600
H575        H  0.78247289  0.03243580  0.67138513     0.16200
C576        C  0.79496103  0.43093853  0.65515269    -0.31400
H577        H  0.78923853  0.40175371  0.63595659     0.16200
H578        H  0.87157217  0.43792992  0.59142082     0.16200
H579        H  0.89630736  0.05885142  0.71894042     0.16300
H580        H  0.85086816  0.07042716  0.60161158     0.16200
C581        C  0.01992324  0.02129045  0.50040424     0.30100
C582        C  0.03241114  0.51108873  0.58542840     0.30100
C583        C  0.04371661  0.05179076  0.52639835    -0.06100
C584        C  0.99717298  0.03228833  0.52023094    -0.06900
C585        C  0.02920578  0.47335562  0.51905109    -0.06800
C586        C  0.05165951  0.04155669  0.56911530    -0.06100
C587        C  0.00429304  0.52837877  0.56352902    -0.06900
C588        C  0.03204485  0.46818834  0.56109023    -0.06800
C589        C  0.06946143  0.07362574  0.58911095    -0.32200
N590        N  0.06844079  0.10899944  0.56396963     0.14300
C591        C  0.05225875  0.09679155  0.52517699    -0.32200
H592        H  0.04474227  0.11969574  0.49939290     0.16300
C593        C  0.98094333  0.52827228  0.57473106    -0.31100
N594        N  0.95970268  0.53427152  0.54021288     0.13100
C595        C  0.96914938  0.53609804  0.50646697    -0.31100
C596        C  0.03723924  0.42422116  0.57144345    -0.31400
N597        N  0.04327759  0.40354269  0.54017910     0.13600
H598        H  0.03952007  0.40841764  0.60121695     0.16200
C599        C  0.03948658  0.43354162  0.50810090    -0.31400
H600        H  0.04448074  0.42746990  0.47953363     0.16200
H601        H  0.95638464  0.53730989  0.47452517     0.16200
H602        H  0.07995805  0.07453025  0.62180335     0.16300
H603        H  0.97926235  0.52170103  0.60563593     0.16200
O604        O  0.04379521  0.22092408  0.64536495    -0.80800
O605        O  0.13558721  0.22016016  0.56587833    -0.65500
O606        O  0.09395271  0.24116110  0.63894796    -1.12100
C607        C  0.05886032  0.36319759  0.54921565     1.06100
O608        O  0.14669256  0.29124052  0.56519656    -0.78700
O609        O  0.12656192  0.34699502  0.60674333    -0.66300
Ni610      Ni  0.07925324  0.19607760  0.66485371     1.34900
C611        C  0.12014262  0.34556950  0.64035143     0.84800
O612        O  0.13578527  0.18498566  0.63856754    -0.79300
O613        O  0.11501005  0.17197030  0.68774996    -0.89500
C614        C  0.15336237  0.25040114  0.56877864     0.84400
O615        O  0.07105942  0.15586844  0.61912063    -0.67700
O616        O  0.08054955  0.36069279  0.53822410    -0.87000
C617        C  0.07584406  0.15184490  0.58416439     0.85200
C618        C  0.13562557  0.16996235  0.67408738     1.06800
H619        H  0.08026522  0.26134087  0.54326912     0.38600
O620        O  0.09251096  0.27421330  0.56833192    -1.09700
O621        O  0.09784252  0.32804283  0.64162544    -0.66300
Ni622      Ni  0.07211257  0.28680125  0.60658728     1.26300
O623        O  0.08971899  0.18085641  0.57081086    -0.66600
O624        O  0.05232400  0.33466126  0.57339250    -0.78800
C625        C  0.04070688  0.25940035  0.65852239     0.84600
O626        O  0.05147847  0.29322911  0.64595875    -0.66000
Ni627      Ni  0.11229599  0.32265334  0.55215035     1.27400
Ni628      Ni  0.11389818  0.22800046  0.60187488     1.26100
H629        H  0.10706058  0.25497195  0.66239350     0.39100
C630        C  0.18219521  0.45105522  0.76448748     0.30100
C631        C  0.19136688  0.04102394  0.76355670     0.30100
C632        C  0.16244008  0.47734930  0.72983099    -0.06100
C633        C  0.17889894  0.47637823  0.80310275    -0.06900
C634        C  0.21093249  0.46636318  0.76579182    -0.06800
C635        C  0.16662086  0.02300205  0.72897954    -0.06100
C636        C  0.18500206  0.02296383  0.80359472    -0.06900
C637        C  0.21532970  0.01202479  0.76382947    -0.06800
C638        C  0.14070099  0.04186228  0.71391487    -0.32200
N639        N  0.12148843  0.50945906  0.70623363     0.14300
C640        C  0.13473704  0.47123271  0.71795959    -0.32200
H641        H  0.12408644  0.44162606  0.72234308     0.16300
C642        C  0.17323548  0.04225971  0.83079976    -0.31100
N643        N  0.15810142  0.51174881  0.84398633     0.13100
C644        C  0.16016323  0.47262828  0.82520606    -0.31100
C645        C  0.24228333  0.02028251  0.78532683    -0.31400
N646        N  0.25419384  0.48175257  0.80041330     0.13600
H647        H  0.25192662  0.05275177  0.79230529     0.16200
C648        C  0.23520893  0.44920940  0.79086436    -0.31400
H649        H  0.23830746  0.41581608  0.80372666     0.16200
H650        H  0.14651688  0.44494759  0.82413126     0.16200
H651        H  0.13617649  0.07672941  0.71221918     0.16300
H652        H  0.17481900  0.07658109  0.83917156     0.16200
C653        C  0.51985484  0.25598715  0.50942748     0.30100
C654        C  0.53905565  0.24523533  0.59304376     0.30100
C655        C  0.54277250  0.29053122  0.53173981    -0.06100
C656        C  0.49873437  0.26365029  0.53381564    -0.06900
C657        C  0.53185507  0.20808894  0.52640236    -0.06800
C658        C  0.55293175  0.28076980  0.57344693    -0.06100
C659        C  0.50918370  0.26011743  0.57809832    -0.06900
C660        C  0.53639600  0.20329144  0.56826593    -0.06800
C661        C  0.56908318  0.31452819  0.59381883    -0.32200
N662        N  0.56718200  0.34988376  0.56888849     0.14300
C663        C  0.54977036  0.33692454  0.53073137    -0.32200
H664        H  0.54068798  0.35981963  0.50557357     0.16300
C665        C  0.48748057  0.24671353  0.59159419    -0.31100
N666        N  0.46471760  0.24308580  0.55891553     0.13100
C667        C  0.47153784  0.25148533  0.52360931    -0.31100
C668        C  0.54392566  0.16109623  0.58114954    -0.31400
N669        N  0.55044284  0.13997995  0.55071535     0.13600
H670        H  0.54932230  0.14962962  0.61325176     0.16200
C671        C  0.54343902  0.16818266  0.51640533    -0.31400
H672        H  0.54738446  0.16143666  0.48716291     0.16200
H673        H  0.45834254  0.24483244  0.49257549     0.16200
H674        H  0.57831220  0.31569302  0.62731893     0.16300
H675        H  0.48862333  0.23570123  0.62274401     0.16200
O676        O  0.54236048  0.46373612  0.64895316    -0.80800
O677        O  0.64359919  0.45164805  0.59146586    -0.65500
O678        O  0.59539336  0.47519616  0.65422140    -1.12100
C679        C  0.56729432  0.10071031  0.56295134     1.06100
O680        O  0.65476506  0.02302264  0.58698947    -0.78700
O681        O  0.63507064  0.07914945  0.62898373    -0.66300
Ni682      Ni  0.57504743  0.43128375  0.67202814     1.34900
C683        C  0.62838189  0.07489676  0.66236439     0.84800
O684        O  0.63646017  0.41549473  0.66103999    -0.79300
O685        O  0.60795138  0.39821365  0.69847079    -0.89500
C686        C  0.66120848  0.48187787  0.59213325     0.84400
O687        O  0.56603605  0.39661910  0.62236046    -0.67700
O688        O  0.59026592  0.09816088  0.55557814    -0.87000
C689        C  0.57483527  0.39182824  0.59095829     0.85200
C690        C  0.63124515  0.39607127  0.69203532     1.06800
H691        H  0.58828033  0.99750673  0.56069769     0.38600
O692        O  0.59991264  0.00948219  0.58657784    -1.09700
O693        O  0.60457470  0.06119462  0.66100687    -0.66300
Ni694      Ni  0.57751830  0.02417560  0.62146179     1.26300
O695        O  0.59423361  0.41619417  0.58569908    -0.66600
O696        O  0.56028042  0.07333769  0.58740197    -0.78800
C697        C  0.53962350  0.50153230  0.66354978     0.84600
O698        O  0.55432256  0.03334293  0.65663274    -0.66000
Ni699      Ni  0.62134585  0.05731469  0.57283298     1.27400
Ni700      Ni  0.61827910  0.46091590  0.62192112     1.26100
H701        H  0.60745276  0.48616545  0.67994857     0.39100
C702        C  0.68987061  0.16984638  0.79615537     0.30100
C703        C  0.69201542  0.26164432  0.79251821     0.30100
C704        C  0.66720732  0.19317313  0.76343868    -0.06100
C705        C  0.68621049  0.19326022  0.83565790    -0.06900
C706        C  0.71724544  0.19145518  0.79637228    -0.06800
C707        C  0.66908346  0.23903783  0.76024448    -0.06100
C708        C  0.68632428  0.24178901  0.83294096    -0.06900
C709        C  0.71797528  0.23759425  0.79246441    -0.06800
C710        C  0.64287535  0.25470301  0.74731560    -0.32200
N711        N  0.62515387  0.22086137  0.74270662     0.14300
C712        C  0.63958230  0.18393797  0.75494258    -0.32200
H713        H  0.62983039  0.15259293  0.75702805     0.16300
C714        C  0.66651787  0.25445244  0.85070535    -0.31100
N715        N  0.65687478  0.21891715  0.86728710     0.13100
C716        C  0.66863011  0.18193877  0.85839618    -0.31100
C717        C  0.74454800  0.25123722  0.81131845    -0.31400
N718        N  0.76009925  0.21592515  0.82858601     0.13600
H719        H  0.75140376  0.28560379  0.81453425     0.16200
C720        C  0.74308023  0.17999461  0.82153490    -0.31400
H721        H  0.74798073  0.14820730  0.83718905     0.16200
H722        H  0.66292721  0.14882250  0.86503306     0.16200
H723        H  0.63677365  0.28889387  0.74113268     0.16300
H724        H  0.65662161  0.28631957  0.84644448     0.16200
C725        C  0.50783634  0.25779806  0.96047575     0.30100
C726        C  0.48812149  0.25255667  0.87653638     0.30100
C727        C  0.48430340  0.29115390  0.94040852    -0.06100
C728        C  0.52831256  0.27167049  0.93643766    -0.06900
C729        C  0.49712167  0.20986322  0.94099612    -0.06800
C730        C  0.47381480  0.28424234  0.89821243    -0.06100
C731        C  0.51778215  0.27046880  0.89188431    -0.06900
C732        C  0.49226419  0.20871624  0.89898720    -0.06800
C733        C  0.45844509  0.31935583  0.87964675    -0.32200
N734        N  0.46130951  0.35276180  0.90643316     0.14300
C735        C  0.47863319  0.33732316  0.94358436    -0.32200
H736        H  0.48877924  0.35863227  0.96942666     0.16300
C737        C  0.53984652  0.26034885  0.87839934    -0.31100
N738        N  0.56253214  0.25708259  0.91129636     0.13100
C739        C  0.55564600  0.26263073  0.94659603    -0.31100
C740        C  0.48613261  0.16664536  0.88375539    -0.31400
N741        N  0.48085396  0.14109274  0.91319907     0.13600
H742        H  0.48051236  0.15792517  0.85103965     0.16200
C743        C  0.48734909  0.16678647  0.94894681    -0.31400
H744        H  0.48384113  0.15628035  0.97785414     0.16200
H745        H  0.56876837  0.25451769  0.97735461     0.16200
H746        H  0.44977859  0.32327301  0.84621892     0.16300
H747        H  0.53891660  0.24958330  0.84742819     0.16200
O748        O  0.48573880  0.46578773  0.81296624    -0.80800
O749        O  0.38559393  0.45588940  0.87952200    -0.65500
O750        O  0.43358747  0.47142246  0.81433679    -1.12100
C751        C  0.46345635  0.10197512  0.89965912     1.06100
O752        O  0.37617026  0.02763363  0.87666651    -0.78700
O753        O  0.39834148  0.08748644  0.83967186    -0.66300
Ni754      Ni  0.45506197  0.42580342  0.80386943     1.34900
C755        C  0.39967135  0.07502559  0.80412731     0.84800
O756        O  0.39141144  0.41487652  0.81255099    -0.79300
O757        O  0.42363664  0.38509911  0.78838227    -0.89500
C758        C  0.36862090  0.48713346  0.87441509     0.84400
O759        O  0.46840093  0.40681906  0.86122433    -0.67700
O760        O  0.44358206  0.09473966  0.91432075    -0.87000
C761        C  0.45530877  0.39623732  0.88675172     0.85200
C762        C  0.39879570  0.38864984  0.78848312     1.06800
H763        H  0.44340439  0.99927706  0.90538144     0.38600
O764        O  0.43076665  0.01032527  0.88001088    -1.09700
O765        O  0.42009094  0.05354860  0.80153963    -0.66300
Ni766      Ni  0.45045147  0.02455734  0.84091184     1.26300
O767        O  0.43293604  0.41526279  0.88541991    -0.66600
O768        O  0.46660880  0.07926485  0.86907321    -0.78800
C769        C  0.48349716  0.50174783  0.79177758     0.84600
O770        O  0.46977411  0.03313116  0.79998614    -0.66000
Ni771      Ni  0.41067603  0.05856737  0.89409516     1.27400
Ni772      Ni  0.41085531  0.46091694  0.84832637     1.26100
H773        H  0.42169686  0.47859932  0.78699809     0.39100
C774        C  0.33513636  0.16848538  0.67703053     0.30100
C775        C  0.33587658  0.26000568  0.68136131     0.30100
C776        C  0.35901909  0.19048909  0.70948825    -0.06100
C777        C  0.33864961  0.19228856  0.63709712    -0.06900
C778        C  0.30859760  0.19088528  0.67845001    -0.06800
C779        C  0.35856156  0.23622046  0.71197619    -0.06100
C780        C  0.34029139  0.24086233  0.64015448    -0.06900
C781        C  0.30946255  0.23717786  0.68123987    -0.06800
C782        C  0.38498625  0.25157783  0.72302845    -0.32200
N783        N  0.40190687  0.21755931  0.72884046     0.14300
C784        C  0.38653993  0.18060689  0.71845543    -0.32200
H785        H  0.39562654  0.14901112  0.71790882     0.16300
C786        C  0.36049374  0.25259608  0.62216390    -0.31100
N787        N  0.36892060  0.21650129  0.60570308     0.13100
C788        C  0.35559489  0.18030173  0.61409448    -0.31100
C789        C  0.28371065  0.25271751  0.66196166    -0.31400
N790        N  0.26688513  0.21805280  0.64712274     0.13600
H791        H  0.27818179  0.28732940  0.65581405     0.16200
C792        C  0.28185092  0.18048913  0.65531797    -0.31400
H793        H  0.27440511  0.14811875  0.64272297     0.16200
H794        H  0.36011819  0.14696155  0.60743636     0.16200
H795        H  0.39184866  0.28578852  0.72749196     0.16300
H796        H  0.37141120  0.28402236  0.62631977     0.16200
C797        C  0.37138825  0.36940472  0.71446619    -0.01800
C798        C  0.37688878  0.36262984  0.75804936     0.07900
C799        C  0.35875782  0.33572164  0.77202906    -0.01900
C800        C  0.33835755  0.31065836  0.74326043    -0.01900
C801        C  0.33820248  0.30782434  0.70034205     0.08000
C802        C  0.35165991  0.34264062  0.68570732    -0.02100
Br803      Br  0.34009233  0.35728843  0.62740487    -0.00600
Br804      Br  0.39032067  0.41604236  0.69422286    -0.00700
Br805      Br  0.31469093  0.27418413  0.76597158    -0.00700
Br806      Br  0.36362465  0.32970874  0.83124206    -0.00600
C807        C  0.35051861  0.09905669  0.76604450    -0.01800
C808        C  0.37648222  0.08506187  0.76423553     0.07900
C809        C  0.37776131  0.07478134  0.72313959    -0.01900
C810        C  0.35732417  0.09062582  0.68704818    -0.01900
C811        C  0.33616104  0.11807472  0.69090979     0.08000
C812        C  0.32995234  0.11062474  0.72904879    -0.02100
Br813      Br  0.29272330  0.11120941  0.73000293    -0.00600
Br814      Br  0.34098875  0.10024944  0.81755764    -0.00700
Br815      Br  0.35341670  0.06471631  0.63358737    -0.00700
Br816      Br  0.40787104  0.04347684  0.71371071    -0.00600
C817        C  0.46981148  0.25361621  0.79545599    -0.01800
C818        C  0.46684222  0.24343048  0.83493574     0.07900
C819        C  0.44127700  0.22476194  0.83770275    -0.01900
C820        C  0.42122982  0.21295350  0.80235217    -0.01900
C821        C  0.42539858  0.21942637  0.76341460     0.08000
C822        C  0.44924077  0.24015929  0.75960871    -0.02100
Br823      Br  0.45195652  0.25355263  0.70475527    -0.00600
Br824      Br  0.49804321  0.29324833  0.78927785    -0.00700
Br825      Br  0.38578459  0.19529582  0.80782857    -0.00700
Br826      Br  0.43104996  0.21610094  0.88958840    -0.00600
C827        C  0.61114664  0.19411437  0.87174352    -0.01800
C828        C  0.63486520  0.22125262  0.88563223     0.07900
C829        C  0.63591487  0.25433869  0.91566038    -0.01900
C830        C  0.61216054  0.26621732  0.92521963    -0.01900
C831        C  0.58813492  0.24112836  0.90883603     0.08000
C832        C  0.58879717  0.20216809  0.88640175    -0.02100
Br833      Br  0.55928501  0.15935194  0.87753876    -0.00600
Br834      Br  0.60673522  0.14956882  0.82936698    -0.00700
Br835      Br  0.61224625  0.31837090  0.95823166    -0.00700
Br836      Br  0.67011367  0.28279155  0.94399497    -0.00600
C837        C  0.52228036  0.54418169  0.71653247    -0.01800
C838        C  0.52119995  0.50611642  0.69104011     0.07900
C839        C  0.50449910  0.96899676  0.69574028    -0.01900
C840        C  0.49251253  0.96793098  0.72852991    -0.01900
C841        C  0.49532190  0.50483482  0.75588505     0.08000
C842        C  0.50912605  0.54357316  0.74822939    -0.02100
Br843      Br  0.51096664  0.59579718  0.78214217    -0.00600
Br844      Br  0.54138542  0.59820459  0.70908016    -0.00700
Br845      Br  0.47063943  0.91637230  0.73373734    -0.00700
Br846      Br  0.49577186  0.92014472  0.65625474    -0.00600
C847        C  0.67208684  0.34526456  0.70778516    -0.01800
C848        C  0.65363180  0.37015951  0.72224991     0.07900
C849        C  0.65830195  0.37232798  0.76619566    -0.01900
C850        C  0.67768824  0.34407760  0.79363095    -0.01900
C851        C  0.69110714  0.31139205  0.77748463     0.08000
C852        C  0.69200847  0.31897825  0.73577748    -0.02100
Br853      Br  0.71825115  0.28977432  0.71434827    -0.00600
Br854      Br  0.66834816  0.34167544  0.64881551    -0.00700
Br855      Br  0.69099343  0.35701380  0.85218738    -0.00700
Br856      Br  0.63885269  0.41422927  0.78945689    -0.00600
C857        C  0.64549997  0.07745703  0.74401337    -0.01800
C858        C  0.64969601  0.08586530  0.70425338     0.07900
C859        C  0.67677475  0.09905301  0.70598457    -0.01900
C860        C  0.69558943  0.11253841  0.74416626    -0.01900
C861        C  0.68744367  0.11981139  0.78065543     0.08000
C862        C  0.66488331  0.09277614  0.78168005    -0.02100
Br863      Br  0.66473728  0.06766745  0.83430570    -0.00600
Br864      Br  0.61362988  0.04627547  0.74919006    -0.00700
Br865      Br  0.73347653  0.11402226  0.74713438    -0.00700
Br866      Br  0.69035869  0.09714712  0.65782765    -0.00600
C867        C  0.43664924  0.19302571  0.58838538    -0.01800
C868        C  0.43850929  0.22933936  0.56237045     0.07900
C869        C  0.41532045  0.25551223  0.54482629    -0.01900
C870        C  0.39152558  0.24785005  0.55646943    -0.01900
C871        C  0.39134912  0.21672740  0.58807430     0.08000
C872        C  0.41388451  0.18812205  0.60314123    -0.02100
Br873      Br  0.41582009  0.14471340  0.64646809    -0.00600
Br874      Br  0.46519851  0.14924751  0.60285740    -0.00700
Br875      Br  0.35875042  0.27957859  0.52882169    -0.00700
Br876      Br  0.41629675  0.30402544  0.50723220    -0.00600
C877        C  0.55626879  0.24784175  0.67411725    -0.01800
C878        C  0.55957341  0.23624117  0.63524508     0.07900
C879        C  0.58575651  0.22068164  0.63366558    -0.01900
C880        C  0.60580568  0.21126695  0.66964602    -0.01900
C881        C  0.60174070  0.22054280  0.70800508     0.08000
C882        C  0.57741923  0.23895751  0.71066902    -0.02100
Br883      Br  0.57465450  0.25530651  0.76457400    -0.00600
Br884      Br  0.52725794  0.28545306  0.67819963    -0.00700
Br885      Br  0.64097925  0.19240735  0.66531645    -0.00700
Br886      Br  0.59760276  0.21701807  0.58286629    -0.00600
C887        C  0.29987831  0.47133252  0.79570156    -0.01800
C888        C  0.28256251  0.47620233  0.82050765     0.07900
C889        C  0.29329631  0.48038110  0.86391901    -0.01900
C890        C  0.32171946  0.48103210  0.88249639    -0.01900
C891        C  0.33923900  0.47785141  0.85733387     0.08000
C892        C  0.32805388  0.47413521  0.81364361    -0.02100
Br893      Br  0.35031305  0.48083020  0.77687092    -0.00600
Br894      Br  0.28445374  0.46347692  0.73640905    -0.00700
Br895      Br  0.33660794  0.49012454  0.94156606    -0.00700
Br896      Br  0.26873499  0.48711463  0.89685762    -0.00600
C897        C  0.19370275  0.24322767  0.63132133    -0.01800
C898        C  0.18249699  0.23959449  0.58764353     0.07900
C899        C  0.19947187  0.22765784  0.56344416    -0.01900
C900        C  0.22749028  0.22012538  0.58291811    -0.01900
C901        C  0.23816554  0.22194637  0.62670839     0.08000
C902        C  0.22105136  0.23294226  0.65069067    -0.02100
Br903      Br  0.23564847  0.23472701  0.71055542    -0.00600
Br904      Br  0.17236843  0.26509131  0.66518761    -0.00700
Br905      Br  0.25178754  0.21082818  0.55001185    -0.00700
Br906      Br  0.18453224  0.22362118  0.50387066    -0.00600
C907        C  0.18627438  0.38829677  0.71796448    -0.01800
C908        C  0.17819047  0.40027930  0.75336512     0.07900
C909        C  0.15452187  0.37785699  0.75589379    -0.01900
C910        C  0.13480416  0.36211869  0.71931971    -0.01900
C911        C  0.14015758  0.36361206  0.67987513     0.08000
C912        C  0.16688787  0.37689879  0.68024349    -0.02100
Br913      Br  0.17885242  0.38221938  0.63071475    -0.00600
Br914      Br  0.22393628  0.37853522  0.72197041    -0.00700
Br915      Br  0.09905525  0.35013846  0.72422000    -0.00700
Br916      Br  0.15241298  0.35943105  0.80970235    -0.00600
C917        C  0.19749727  0.09702099  0.71110456    -0.01800
C918        C  0.19648181  0.08970949  0.75253356     0.07900
C919        C  0.18692283  0.12521758  0.77079758    -0.01900
C920        C  0.16845760  0.15512936  0.74483467    -0.01900
C921        C  0.16066593  0.14930751  0.70105543     0.08000
C922        C  0.17733110  0.12314542  0.68411464    -0.02100
Br923      Br  0.17068327  0.11683363  0.62467692    -0.00600
Br924      Br  0.22244636  0.56548665  0.68868495    -0.00700
Br925      Br  0.15600153  0.20575734  0.76855521    -0.00700
Br926      Br  0.20688353  0.14161920  0.82671041    -0.00600
C927        C  0.08055231  0.47202231  0.66397292    -0.01800
C928        C  0.09231746  0.50977652  0.68722136     0.07900
C929        C  0.07454270  0.04505432  0.68909724    -0.01900
C930        C  0.04786621  0.04467676  0.65978158    -0.01900
C931        C  0.03978656  0.50719308  0.63338360     0.08000
C932        C  0.05262427  0.46851332  0.65068721    -0.02100
Br933      Br  0.03616086  0.43543311  0.68599293    -0.00600
Br934      Br  0.09929393  0.44633558  0.62847961    -0.00700
Br935      Br  0.02534175  0.09640563  0.65082601    -0.00700
Br936      Br  0.08619913  0.09439977  0.72583411    -0.00600
C937        C  0.73511899  0.96231100  0.59548268    -0.01800
C938        C  0.74776542  0.46105292  0.63904455     0.07900
C939        C  0.73170596  0.46312181  0.66620776    -0.01900
C940        C  0.70350925  0.46937549  0.65054817    -0.01900
C941        C  0.69062173  0.47084911  0.60710911     0.08000
C942        C  0.70650987  0.96643884  0.57946908    -0.02100
Br943      Br  0.68925064  0.96705265  0.52024564    -0.00600
Br944      Br  0.75734465  0.96076223  0.55839519    -0.00700
Br945      Br  0.68324721  0.47998857  0.68937788    -0.00700
Br946      Br  0.74889102  0.45769330  0.72535482    -0.00600
C947        C  0.90341048  0.05674621  0.58409516    -0.01800
C948        C  0.88479426  0.52139313  0.56671389     0.07900
C949        C  0.88908928  0.49628449  0.53373022    -0.01900
C950        C  0.91341926  0.50147322  0.52294623    -0.01900
C951        C  0.93212821  0.53529159  0.54156479     0.08000
C952        C  0.92576705  0.06507766  0.56917626    -0.02100
Br953      Br  0.94950164  0.11599539  0.58855408    -0.00600
Br954      Br  0.90246988  0.09087737  0.63216766    -0.00700
Br955      Br  0.92237399  0.45918149  0.48636827    -0.00700
Br956      Br  0.86194363  0.45409842  0.50346785    -0.00600
C957        C  0.83538443  0.18978009  0.86858758    -0.01800
C958        C  0.84604074  0.23235965  0.88161277     0.07900
C959        C  0.82816709  0.26347752  0.89047742    -0.01900
C960        C  0.79980234  0.25497404  0.87782971    -0.01900
C961        C  0.78886899  0.21776895  0.85232570     0.08000
C962        C  0.80722516  0.18360737  0.85004655    -0.02100
Br963      Br  0.79592743  0.12913339  0.81992167    -0.00600
Br964      Br  0.85827843  0.13864273  0.88401840    -0.00700
Br965      Br  0.77658887  0.29139768  0.89953854    -0.00700
Br966      Br  0.84253080  0.31529106  0.92376137    -0.00600
C967        C  0.03189470  0.26474277  0.76711721    -0.01800
C968        C  0.00341061  0.26664213  0.75796275     0.07900
C969        C  0.98725616  0.26198637  0.71608618    -0.01900
C970        C  0.99930187  0.26369577  0.68341793    -0.01900
C971        C  0.02777520  0.26339786  0.69245447     0.08000
C972        C  0.04389295  0.26073907  0.73454709    -0.02100
Br973      Br  0.08166423  0.24497331  0.74769132    -0.00600
Br974      Br  0.05422342  0.26345759  0.82439883    -0.00700
Br975      Br  0.97680849  0.26360191  0.62629506    -0.00700
Br976      Br  0.94953635  0.24428609  0.70377706    -0.00600
C977        C  0.84684553  0.06703669  0.74253909    -0.01800
C978        C  0.83978562  0.06801605  0.69789379     0.07900
C979        C  0.84382614  0.10892081  0.67956187    -0.01900
C980        C  0.86217329  0.14118564  0.70353153    -0.01900
C981        C  0.87502110  0.13356971  0.74652628     0.08000
C982        C  0.86664336  0.09686409  0.76597443    -0.02100
Br983      Br  0.88710847  0.08102606  0.82227213    -0.00600
Br984      Br  0.83447325  0.02017761  0.77286371    -0.00700
Br985      Br  0.87009148  0.19496618  0.67733787    -0.00700
Br986      Br  0.81892091  0.62518748  0.62684407    -0.00600
C987        C  0.84278195  0.36008863  0.69948834    -0.01800
C988        C  0.85396812  0.38187985  0.67047606     0.07900
C989        C  0.88033185  0.36589592  0.67431314    -0.01900
C990        C  0.89835388  0.35484267  0.71452778    -0.01900
C991        C  0.88819929  0.34950679  0.74969559     0.08000
C992        C  0.85929844  0.34873480  0.74010186    -0.02100
Br993      Br  0.84084978  0.32794530  0.77937125    -0.00600
Br994      Br  0.80901881  0.32785480  0.67830481    -0.00700
Br995      Br  0.93668476  0.35283034  0.71994514    -0.00700
Br996      Br  0.89167904  0.35942517  0.62517123    -0.00600
C997        C  0.12435800  0.05884865  0.86527789    -0.01800
C998        C  0.14003651  0.51929365  0.86921604     0.07900
C999        C  0.13601500  0.48496035  0.89632786    -0.01900
C1000       C  0.11347977  0.48595634  0.91184041    -0.01900
C1001       C  0.09728004  0.52387505  0.90562556     0.08000
C1002       C  0.10424859  0.06166911  0.88570773    -0.02100
Br1003     Br  0.08353336  0.11539671  0.88316104    -0.00600
Br1004     Br  0.12664934  0.10815196  0.82907292    -0.00700
Br1005     Br  0.10280180  0.43404282  0.93761257    -0.00700
Br1006     Br  0.16148436  0.43692526  0.91346938    -0.00600
C1007       C  0.98120679  0.51724116  0.78430839    -0.01800
C1008       C  0.97621964  0.50499198  0.82233802     0.07900
C1009       C  0.94928380  0.98902099  0.82105565    -0.01900
C1010       C  0.93040493  0.97925497  0.78379358    -0.01900
C1011       C  0.93502656  0.49335134  0.74657427     0.08000
C1012       C  0.96019838  0.51195739  0.74648179    -0.02100
Br1013     Br  0.96483345  0.53183817  0.69428549    -0.00600
Br1014     Br  0.01357153  0.54882401  0.78258931    -0.00700
Br1015     Br  0.89663472  0.95078058  0.78571247    -0.00700
Br1016     Br  0.93483387  0.98483251  0.86944734    -0.00600
C1017       C  0.01076267  0.52192765  0.45101532     0.30100
C1018       C  0.99534743  0.01301182  0.36614137     0.30100
C1019       C  0.98916562  0.55672616  0.42632814    -0.06100
C1020       C  0.03365225  0.53011136  0.42962386    -0.06900
C1021       C  0.99843437  0.97476324  0.43179882    -0.06800
C1022       C  0.98133220  0.54830187  0.38421268    -0.06100
C1023       C  0.02532052  0.52622621  0.38534223    -0.06900
C1024       C  0.99573898  0.97104419  0.39024331    -0.06800
C1025       C  0.96540225  0.58123915  0.36317423    -0.32200
N1026       N  0.96472659  0.61497440  0.38844536     0.14300
C1027       C  0.98018648  0.60157431  0.42778865    -0.32200
H1028       H  0.98649653  0.62335426  0.45446296     0.16300
C1029       C  0.04837079  0.01763440  0.37472233    -0.31100
N1030       N  0.07015414  0.02152692  0.40873855     0.13100
C1031       C  0.06167609  0.02796080  0.44276128    -0.31100
C1032       C  0.98944283  0.92871492  0.37657716    -0.31400
N1033       N  0.98251542  0.90574841  0.40603844     0.13600
H1034       H  0.98543376  0.91778203  0.34462852     0.16200
C1035       C  0.98725935  0.93324619  0.44020957    -0.31400
H1036       H  0.98232887  0.92448645  0.46848022     0.16200
H1037       H  0.07487064  0.02877738  0.47446376     0.16200
H1038       H  0.95725587  0.58265279  0.32949822     0.16300
H1039       H  0.04968096  0.00677788  0.34487066     0.16200
O1040       O  0.98716032  0.72626171  0.30639322    -0.80800
O1041       O  0.89072241  0.71677437  0.37593434    -0.65500
O1042       O  0.93516280  0.74193072  0.30557195    -1.12100
C1043       C  0.96589338  0.86635737  0.39300556     1.06100
O1044       O  0.87874950  0.78723930  0.37565070    -0.78700
O1045       O  0.89657035  0.83900321  0.32431976    -0.66300
Ni1046     Ni  0.95280767  0.69775903  0.28441419     1.34900
C1047       C  0.90640380  0.83891079  0.29372149     0.84800
O1048       O  0.89393634  0.68064014  0.30448500    -0.79300
O1049       O  0.91848846  0.66760158  0.26022618    -0.89500
C1050       C  0.87382429  0.74593753  0.37920707     0.84400
O1051       O  0.96154206  0.66170717  0.33276448    -0.67700
O1052       O  0.94149149  0.86594662  0.39496995    -0.87000
C1053       C  0.95572780  0.65695444  0.36684357     0.85200
C1054       C  0.89701283  0.66286275  0.27163651     1.06800
H1055       H  0.94436048  0.76509759  0.40036174     0.38600
O1056       O  0.93316050  0.77576015  0.37383099    -1.09700
O1057       O  0.93128312  0.82963173  0.29967536    -0.66300
Ni1058     Ni  0.95573013  0.78918236  0.33826802     1.26300
O1059       O  0.93885554  0.68261224  0.37642639    -0.66600
O1060       O  0.97474622  0.83687064  0.37314254    -0.78800
C1061       C  0.99021429  0.76398982  0.29150327     0.84600
O1062       O  0.97854168  0.79731451  0.30162686    -0.66000
Ni1063     Ni  0.91115270  0.82367860  0.38284120     1.27400
Ni1064     Ni  0.91380025  0.72679937  0.34120041     1.26100
H1065       H  0.92272989  0.75429109  0.28106391     0.39100
C1066       C  0.84750582  0.93352988  0.16241691     0.30100
C1067       C  0.84001803  0.52226828  0.17576085     0.30100
C1068       C  0.87149428  0.95905121  0.19102480    -0.06100
C1069       C  0.84353485  0.96390364  0.12287933    -0.06900
C1070       C  0.82140734  0.94589165  0.17400620    -0.06800
C1071       C  0.86733886  0.50277478  0.19857326    -0.06100
C1072       C  0.83867407  0.51057226  0.12933537    -0.06900
C1073       C  0.81863494  0.49056116  0.18259208    -0.06800
C1074       C  0.89231865  0.52422339  0.20970122    -0.32200
N1075       N  0.91189341  0.99518341  0.21047811     0.14300
C1076       C  0.89911305  0.95742188  0.19426623    -0.32200
H1077       H  0.90998908  0.93144863  0.18480589     0.16300
C1078       C  0.84980361  0.53452919  0.10299350    -0.31100
N1079       N  0.86340249  0.00748343  0.08464680     0.13100
C1080       C  0.85953954  0.96509191  0.09624291    -0.31100
C1081       C  0.79122944  0.49950949  0.17231814    -0.31400
N1082       N  0.77679248  0.96285431  0.15630830     0.13600
H1083       H  0.78247913  0.53224165  0.17130572     0.16200
C1084       C  0.79476908  0.93094533  0.15507433    -0.31400
H1085       H  0.78900145  0.90180945  0.13581877     0.16200
H1086       H  0.87138449  0.93772298  0.09128925     0.16200
H1087       H  0.89627551  0.55865299  0.21875875     0.16300
H1088       H  0.85069527  0.57011480  0.10109469     0.16200
C1089       C  0.02002866  0.52137127  0.00053104     0.30100
C1090       C  0.03241296  0.01114309  0.08558234     0.30100
C1091       C  0.04381298  0.55185438  0.02653856    -0.06100
C1092       C  0.99725145  0.53238129  0.02029108    -0.06900
C1093       C  0.02933402  0.97356581  0.01916390    -0.06800
C1094       C  0.05171078  0.54166240  0.06925947    -0.06100
C1095       C  0.00426190  0.02830738  0.06365587    -0.06900
C1096       C  0.03215485  0.96831085  0.06119355    -0.06800
C1097       C  0.06953280  0.57370569  0.08924839    -0.32200
N1098       N  0.06856366  0.60903798  0.06407144     0.14300
C1099       C  0.05240478  0.59681255  0.02527443    -0.32200
H1100       H  0.04493457  0.61969028  0.99945547     0.16300
C1101       C  0.98088463  0.02805354  0.07480416    -0.31100
N1102       N  0.95965475  0.03398178  0.04025182     0.13100
C1103       C  0.96913767  0.03593377  0.00654553    -0.31100
C1104       C  0.03736740  0.92433173  0.07147844    -0.31400
N1105       N  0.04341995  0.90373545  0.04018812     0.13600
H1106       H  0.03962799  0.90845146  0.10121211     0.16200
C1107       C  0.03963392  0.93379544  0.00816047    -0.31400
H1108       H  0.04462180  0.92777926  0.97957891     0.16200
H1109       H  0.95639273  0.03713809  0.97459137     0.16200
H1110       H  0.08000841  0.57463188  0.12194642     0.16300
H1111       H  0.97918356  0.02144776  0.10569190     0.16200
O1112       O  0.04386018  0.72102157  0.14511919    -0.80800
O1113       O  0.13566378  0.72013235  0.06575995    -0.65500
O1114       O  0.09402097  0.74135827  0.13879307    -1.12100
C1115       C  0.05897800  0.86336531  0.04915235     1.06100
O1116       O  0.14675608  0.79120796  0.06477409    -0.78700
O1117       O  0.12680806  0.84670358  0.10677515    -0.66300
Ni1118     Ni  0.07933666  0.69632504  0.16478320     1.34900
C1119       C  0.12026938  0.84548786  0.14028590     0.84800
O1120       O  0.13578829  0.68506348  0.13845533    -0.79300
O1121       O  0.11509943  0.67235692  0.18779257    -0.89500
C1122       C  0.15341917  0.75036748  0.06841965     0.84400
O1123       O  0.07124757  0.65595148  0.11920301    -0.67700
O1124       O  0.08075836  0.86097927  0.03839560    -0.87000
C1125       C  0.07596831  0.65190809  0.08420550     0.85200
C1126       C  0.13567111  0.67020854  0.17404904     1.06800
H1127       H  0.08036948  0.76144936  0.04306177     0.38600
O1128       O  0.09259715  0.77431576  0.06814370    -1.09700
O1129       O  0.09783822  0.82829636  0.14137794    -0.66300
Ni1130     Ni  0.07215892  0.78691920  0.10636479     1.26300
O1131       O  0.08974567  0.68097085  0.07072176    -0.66600
O1132       O  0.05232708  0.83467403  0.07308141    -0.78800
C1133       C  0.04072201  0.75947696  0.15825538     0.84600
O1134       O  0.05147863  0.79333206  0.14569739    -0.66000
Ni1135     Ni  0.11242161  0.82275642  0.05204693     1.27400
Ni1136     Ni  0.11395941  0.72810147  0.10173493     1.26100
H1137       H  0.10712800  0.75522463  0.16220590     0.39100
C1138       C  0.18222035  0.95108240  0.26465634     0.30100
C1139       C  0.19136041  0.54136311  0.26349743     0.30100
C1140       C  0.16246319  0.97739637  0.23001543    -0.06100
C1141       C  0.17891604  0.97640995  0.30328224    -0.06900
C1142       C  0.21096837  0.96640841  0.26597101    -0.06800
C1143       C  0.16657594  0.52332945  0.22899218    -0.06100
C1144       C  0.18506147  0.52335979  0.30360817    -0.06900
C1145       C  0.21529739  0.51235525  0.26368260    -0.06800
C1146       C  0.14064942  0.54218671  0.21398011    -0.32200
N1147       N  0.12150326  0.00950338  0.20642733     0.14300
C1148       C  0.13475863  0.97128416  0.21815991    -0.32200
H1149       H  0.12410900  0.94167829  0.22254807     0.16300
C1150       C  0.17323283  0.54269498  0.33073132    -0.31100
N1151       N  0.15806982  0.01185577  0.34408677     0.13100
C1152       C  0.16013318  0.97272291  0.32532218    -0.31100
C1153       C  0.24227212  0.52064196  0.28502562    -0.31400
N1154       N  0.25425732  0.98185316  0.30049723     0.13600
H1155       H  0.25191304  0.55311888  0.29195403     0.16200
C1156       C  0.23527037  0.94929772  0.29103003    -0.31400
H1157       H  0.23838543  0.91593113  0.30395126     0.16200
H1158       H  0.14645030  0.94508834  0.32419699     0.16200
H1159       H  0.13612755  0.57705930  0.21220924     0.16300
H1160       H  0.17473861  0.57704939  0.33897475     0.16200
C1161       C  0.52000384  0.75624187  0.00932042     0.30100
C1162       C  0.53918917  0.74546226  0.09291075     0.30100
C1163       C  0.54303694  0.79062373  0.03160564    -0.06100
C1164       C  0.49893820  0.76424260  0.03370226    -0.06900
C1165       C  0.53181731  0.70821207  0.02631682    -0.06800
C1166       C  0.55323815  0.78075021  0.07329662    -0.06100
C1167       C  0.50938981  0.76073617  0.07798835    -0.06900
C1168       C  0.53632298  0.70345728  0.06817375    -0.06800
C1169       C  0.56937057  0.81449870  0.09374170    -0.32200
N1170       N  0.56733095  0.84999380  0.06896017     0.14300
C1171       C  0.54990413  0.83710309  0.03079129    -0.32200
H1172       H  0.54069036  0.86008586  0.00577863     0.16300
C1173       C  0.48765438  0.74757301  0.09149484    -0.31100
N1174       N  0.46489774  0.74394584  0.05881319     0.13100
C1175       C  0.47172841  0.75221228  0.02350578    -0.31100
C1176       C  0.54372007  0.66121186  0.08109727    -0.31400
N1177       N  0.55023577  0.63997319  0.05072076     0.13600
H1178       H  0.54908560  0.64980370  0.11321494     0.16200
C1179       C  0.54334183  0.66819075  0.01640055    -0.31400
H1180       H  0.54734911  0.66139848  0.98721179     0.16200
H1181       H  0.45854201  0.74546448  0.99248657     0.16200
H1182       H  0.57861319  0.81556865  0.12724153     0.16300
H1183       H  0.48877515  0.73663685  0.12265664     0.16200
O1184       O  0.54231160  0.96367525  0.14858259    -0.80800
O1185       O  0.64348770  0.95200424  0.09171452    -0.65500
O1186       O  0.59524085  0.97542039  0.15434888    -1.12100
C1187       C  0.56710383  0.60070717  0.06307723     1.06100
O1188       O  0.65467749  0.52318929  0.08746578    -0.78700
O1189       O  0.63480835  0.57945894  0.12918676    -0.66300
Ni1190     Ni  0.57497293  0.93142667  0.17217692     1.34900
C1191       C  0.62817287  0.57511230  0.16260436     0.84800
O1192       O  0.63629008  0.91573096  0.16123487    -0.79300
O1193       O  0.60794500  0.89871163  0.19901198    -0.89500
C1194       C  0.66108364  0.98227042  0.09243956     0.84400
O1195       O  0.56623855  0.89636977  0.12275472    -0.67700
O1196       O  0.59005894  0.59809340  0.05565915    -0.87000
C1197       C  0.57490031  0.89187907  0.09117765     0.85200
C1198       C  0.63118555  0.89648163  0.19240792     1.06800
H1199       H  0.58822011  0.49749136  0.06110367     0.38600
O1200       O  0.59982546  0.50953547  0.08697201    -1.09700
O1201       O  0.60440280  0.56125769  0.16132287    -0.66300
Ni1202     Ni  0.57736473  0.52421535  0.12174223     1.26300
O1203       O  0.59411046  0.91657791  0.08576365    -0.66600
O1204       O  0.56012455  0.57340953  0.08763594    -0.78800
C1205       C  0.53946814  0.00124143  0.16347256     0.84600
O1206       O  0.55408586  0.53325409  0.15677997    -0.66000
Ni1207     Ni  0.62119884  0.55737314  0.07312357     1.27400
Ni1208     Ni  0.61813940  0.96120523  0.12210808     1.26100
H1209       H  0.60728246  0.98644088  0.18006700     0.39100
C1210       C  0.68986489  0.67012146  0.29620467     0.30100
C1211       C  0.69203240  0.76192463  0.29260180     0.30100
C1212       C  0.66718536  0.69347987  0.26354575    -0.06100
C1213       C  0.68628697  0.69352899  0.33576397    -0.06900
C1214       C  0.71721777  0.69170685  0.29630712    -0.06800
C1215       C  0.66905861  0.73934498  0.26040099    -0.06100
C1216       C  0.68641350  0.74205707  0.33307343    -0.06900
C1217       C  0.71795008  0.73784266  0.29239058    -0.06800
C1218       C  0.64285750  0.75502611  0.24748268    -0.32200
N1219       N  0.62514153  0.72116449  0.24275128     0.14300
C1220       C  0.63956430  0.68423477  0.25498095    -0.32200
H1221       H  0.62980534  0.65287540  0.25695630     0.16300
C1222       C  0.66665703  0.75472805  0.35094233    -0.31100
N1223       N  0.65702368  0.71918594  0.36753631     0.13100
C1224       C  0.66875639  0.68220860  0.35858149    -0.31100
C1225       C  0.74453996  0.75146453  0.31106978    -0.31400
N1226       N  0.76009670  0.71614916  0.32830607     0.13600
H1227       H  0.75140640  0.78582563  0.31420500     0.16200
C1228       C  0.74307525  0.68022872  0.32135741    -0.31400
H1229       H  0.74800105  0.64844545  0.33701133     0.16200
H1230       H  0.66304814  0.64908318  0.36518975     0.16200
H1231       H  0.63676046  0.78922936  0.24136296     0.16300
H1232       H  0.65677395  0.78660810  0.34671913     0.16200
C1233       C  0.50786450  0.75738745  0.46073829     0.30100
C1234       C  0.48813465  0.75224712  0.37684846     0.30100
C1235       C  0.48430769  0.79068971  0.44076739    -0.06100
C1236       C  0.52833269  0.77134500  0.43671882    -0.06900
C1237       C  0.49719593  0.70944826  0.44123908    -0.06800
C1238       C  0.47378918  0.78381631  0.39859612    -0.06100
C1239       C  0.51779220  0.77017841  0.39217699    -0.06900
C1240       C  0.49229440  0.70836886  0.39921853    -0.06800
C1241       C  0.45830998  0.81886683  0.38013495    -0.32200
N1242       N  0.46118749  0.85225610  0.40695639     0.14300
C1243       C  0.47860308  0.83682051  0.44402739    -0.32200
H1244       H  0.48879606  0.85812565  0.46984690     0.16300
C1245       C  0.53985334  0.76004289  0.37867539    -0.31100
N1246       N  0.56254981  0.75678497  0.41154793     0.13100
C1247       C  0.55567117  0.76230534  0.44685795    -0.31100
C1248       C  0.48619161  0.66630972  0.38394225    -0.31400
N1249       N  0.48102476  0.64066047  0.41341702     0.13600
H1250       H  0.48051621  0.65764057  0.35121156     0.16200
C1251       C  0.48752802  0.66630558  0.44919236    -0.31400
H1252       H  0.48408487  0.65571723  0.47812270     0.16200
H1253       H  0.56880868  0.75421847  0.47761325     0.16200
H1254       H  0.44959108  0.82280949  0.34671912     0.16300
H1255       H  0.53892028  0.74928195  0.34770382     0.16200
O1256       O  0.48593078  0.96498237  0.31374937    -0.80800
O1257       O  0.38564809  0.95580457  0.37982349    -0.65500
O1258       O  0.43372095  0.97087289  0.31471444    -1.12100
C1259       C  0.46362444  0.60155295  0.39990388     1.06100
O1260       O  0.37620052  0.52775660  0.37649418    -0.78700
O1261       O  0.39862928  0.58761337  0.33978476    -0.66300
Ni1262     Ni  0.45518069  0.92515271  0.30441454     1.34900
C1263       C  0.39993170  0.57508699  0.30424376     0.84800
O1264       O  0.39149203  0.91451869  0.31297131    -0.79300
O1265       O  0.42366911  0.88463629  0.28875348    -0.89500
C1266       C  0.36869640  0.98709789  0.37460310     0.84400
O1267       O  0.46840511  0.90615889  0.36175037    -0.67700
O1268       O  0.44374578  0.59438916  0.41456773    -0.87000
C1269       C  0.45528288  0.89574304  0.38726600     0.85200
C1270       C  0.39882458  0.88834714  0.28880477     1.06800
H1271       H  0.44338926  0.49900651  0.40560866     0.38600
O1272       O  0.43079302  0.51007659  0.38020874    -1.09700
O1273       O  0.42023279  0.55322724  0.30171909    -0.66300
Ni1274     Ni  0.45053068  0.52412318  0.34117099     1.26300
O1275       O  0.43296047  0.91495437  0.38591729    -0.66600
O1276       O  0.46675358  0.57881674  0.36931406    -0.78800
C1277       C  0.48377253  0.00078878  0.29237917     0.84600
O1278       O  0.46988904  0.53249071  0.30031859    -0.66000
Ni1279     Ni  0.41076152  0.55848012  0.39415398     1.27400
Ni1280     Ni  0.41094979  0.96059542  0.34867023     1.26100
H1281       H  0.42185301  0.97798059  0.28733936     0.39100
C1282       C  0.33537074  0.66892127  0.17677893     0.30100
C1283       C  0.33597249  0.76048526  0.18097717     0.30100
C1284       C  0.35913262  0.69106293  0.20931755    -0.06100
C1285       C  0.33895255  0.69274463  0.13689337    -0.06900
C1286       C  0.30874588  0.69123389  0.17795526    -0.06800
C1287       C  0.35862460  0.73679572  0.21173695    -0.06100
C1288       C  0.34051751  0.74132429  0.13988596    -0.06900
C1289       C  0.30954137  0.73755764  0.18063833    -0.06800
C1290       C  0.38505112  0.75218040  0.22293842    -0.32200
N1291       N  0.40198562  0.71817201  0.22890938     0.14300
C1292       C  0.38665710  0.68120620  0.21851485    -0.32200
H1293       H  0.39578452  0.64962883  0.21808089     0.16300
C1294       C  0.36069254  0.75313485  0.12188750    -0.31100
N1295       N  0.36913388  0.71706192  0.10543219     0.13100
C1296       C  0.35587599  0.68081105  0.11386255    -0.31100
C1297       C  0.28381627  0.75299794  0.16100716    -0.31400
N1298       N  0.26706552  0.71827633  0.14607267     0.13600
H1299       H  0.27825755  0.78758893  0.15478329     0.16200
C1300       C  0.28205274  0.68073954  0.15460296    -0.31400
H1301       H  0.27466474  0.64829629  0.14214104     0.16200
H1302       H  0.36044464  0.64750553  0.10719373     0.16200
H1303       H  0.39191678  0.78637329  0.22741197     0.16300
H1304       H  0.37158651  0.78457715  0.12601877     0.16200
C1305       C  0.37168211  0.86946789  0.21457036    -0.01800
C1306       C  0.37684896  0.86270295  0.25810012     0.07900
C1307       C  0.35834359  0.83623669  0.27168562    -0.01900
C1308       C  0.33804437  0.81123112  0.24266682    -0.01900
C1309       C  0.33817725  0.80833777  0.19987984     0.08000
C1310       C  0.35190201  0.84302535  0.18555901    -0.02100
Br1311     Br  0.34061352  0.85800611  0.12732671    -0.00600
Br1312     Br  0.39118113  0.91560020  0.19472453    -0.00700
Br1313     Br  0.31408551  0.77492691  0.26494301    -0.00700
Br1314     Br  0.36246575  0.83083458  0.33073752    -0.00600
C1315       C  0.35087968  0.59960473  0.26601246    -0.01800
C1316       C  0.37683029  0.58542084  0.26429143     0.07900
C1317       C  0.37816473  0.57520839  0.22320875    -0.01900
C1318       C  0.35777783  0.59112138  0.18706529    -0.01900
C1319       C  0.33655032  0.61852136  0.19082959     0.08000
C1320       C  0.33032888  0.61113246  0.22896461    -0.02100
Br1321     Br  0.29308420  0.61180005  0.22983341    -0.00600
Br1322     Br  0.34135244  0.60121608  0.31751179    -0.00700
Br1323     Br  0.35409464  0.56540554  0.13359405    -0.00700
Br1324     Br  0.40833857  0.54397155  0.21388935    -0.00600
C1325       C  0.46992848  0.75356358  0.29580460    -0.01800
C1326       C  0.46690281  0.74322756  0.33522401     0.07900
C1327       C  0.44129192  0.72464721  0.33789388    -0.01900
C1328       C  0.42112455  0.71355826  0.30245620    -0.01900
C1329       C  0.42539408  0.71999322  0.26358875     0.08000
C1330       C  0.44937392  0.74028219  0.25989542    -0.02100
Br1331     Br  0.45235981  0.75321418  0.20511721    -0.00600
Br1332     Br  0.49820673  0.79316573  0.28975412    -0.00700
Br1333     Br  0.38549176  0.69681677  0.30775424    -0.00700
Br1334     Br  0.43111168  0.71535652  0.38974610    -0.00600
C1335       C  0.61129371  0.69424821  0.37188484    -0.01800
C1336       C  0.63497365  0.72147550  0.38581189     0.07900
C1337       C  0.63593552  0.75457381  0.41580142    -0.01900
C1338       C  0.61214717  0.76628262  0.42535409    -0.01900
C1339       C  0.58818481  0.74101690  0.40903564     0.08000
C1340       C  0.58892621  0.70212362  0.38655221    -0.02100
Br1341     Br  0.55947441  0.65917449  0.37755065    -0.00600
Br1342     Br  0.60692468  0.64986510  0.32937419    -0.00700
Br1343     Br  0.61207342  0.81850682  0.45820302    -0.00700
Br1344     Br  0.67004821  0.78331799  0.44408458    -0.00600
C1345       C  0.52197339  0.04348517  0.21648131    -0.01800
C1346       C  0.52128983  0.00521837  0.19140001     0.07900
C1347       C  0.50442173  0.46855637  0.19590496    -0.01900
C1348       C  0.49255901  0.46729121  0.22883050    -0.01900
C1349       C  0.49571284  0.00363018  0.25661058     0.08000
C1350       C  0.50899245  0.04270366  0.24836834    -0.02100
Br1351     Br  0.51038558  0.09524506  0.28174941    -0.00600
Br1352     Br  0.54022321  0.09810959  0.20812650    -0.00700
Br1353     Br  0.47083690  0.41556559  0.23412202    -0.00700
Br1354     Br  0.49557163  0.41994498  0.15616767    -0.00600
C1355       C  0.67197379  0.84560503  0.20792633    -0.01800
C1356       C  0.65362486  0.87058582  0.22254716     0.07900
C1357       C  0.65843007  0.87276498  0.26652564    -0.01900
C1358       C  0.67781616  0.84441432  0.29384868    -0.01900
C1359       C  0.69111313  0.81166828  0.27756099     0.08000
C1360       C  0.69190686  0.81924257  0.23579954    -0.02100
Br1361     Br  0.71794016  0.78980433  0.21408582    -0.00600
Br1362     Br  0.66805572  0.84196289  0.14889947    -0.00700
Br1363     Br  0.69127508  0.85722689  0.35241895    -0.00700
Br1364     Br  0.63919329  0.91483712  0.28997730    -0.00600
C1365       C  0.64542995  0.57771314  0.24425599    -0.01800
C1366       C  0.64953449  0.58612175  0.20443507     0.07900
C1367       C  0.67659608  0.59929341  0.20603525    -0.01900
C1368       C  0.69547158  0.61280333  0.24415075    -0.01900
C1369       C  0.68740670  0.62008823  0.28070838     0.08000
C1370       C  0.66487359  0.59305362  0.28185725    -0.02100
Br1371     Br  0.66491670  0.56784422  0.33452975    -0.00600
Br1372     Br  0.61359560  0.54655938  0.24960051    -0.00700
Br1373     Br  0.73333189  0.61433863  0.24692361    -0.00700
Br1374     Br  0.69009074  0.59729795  0.15779257    -0.00600
C1375       C  0.43692364  0.69385570  0.08839232    -0.01800
C1376       C  0.43871317  0.73008611  0.06224366     0.07900
C1377       C  0.41546184  0.75606002  0.04450743    -0.01900
C1378       C  0.39166514  0.74830049  0.05610396    -0.01900
C1379       C  0.39156140  0.71732781  0.08784598     0.08000
C1380       C  0.41416013  0.68891781  0.10311656    -0.02100
Br1381     Br  0.41616551  0.64577373  0.14668878    -0.00600
Br1382     Br  0.46555990  0.65023351  0.10312245    -0.00700
Br1383     Br  0.35879612  0.77969029  0.02825435    -0.00700
Br1384     Br  0.41634310  0.80444338  0.00673329    -0.00600
C1385       C  0.55634911  0.74818023  0.17396100    -0.01800
C1386       C  0.55964655  0.73636187  0.13513492     0.07900
C1387       C  0.58580212  0.72059026  0.13362080    -0.01900
C1388       C  0.60590079  0.71153608  0.16965375    -0.01900
C1389       C  0.60178128  0.72085705  0.20797148     0.08000
C1390       C  0.57743520  0.73922052  0.21055559    -0.02100
Br1391     Br  0.57455912  0.75542634  0.26443247    -0.00600
Br1392     Br  0.52752578  0.78628056  0.17793902    -0.00700
Br1393     Br  0.64118721  0.69310569  0.16543661    -0.00700
Br1394     Br  0.59759470  0.71636397  0.08281381    -0.00600
C1395       C  0.29996904  0.97130114  0.29588479    -0.01800
C1396       C  0.28263154  0.97635493  0.32063876     0.07900
C1397       C  0.29335385  0.98078022  0.36403232    -0.01900
C1398       C  0.32177479  0.98135987  0.38264863    -0.01900
C1399       C  0.33931048  0.97786425  0.35754286     0.08000
C1400       C  0.32814635  0.97401304  0.31386396    -0.02100
Br1401     Br  0.35045960  0.98048157  0.27713982    -0.00600
Br1402     Br  0.28458815  0.96340962  0.23659408    -0.00700
Br1403     Br  0.33664439  0.99083572  0.44166863    -0.00700
Br1404     Br  0.26878315  0.98802103  0.39688096    -0.00600
C1405       C  0.19387444  0.74292598  0.13073655    -0.01800
C1406       C  0.18258445  0.73959154  0.08705245     0.07900
C1407       C  0.19953777  0.72820720  0.06264249    -0.01900
C1408       C  0.22759016  0.72073776  0.08194913    -0.01900
C1409       C  0.23832279  0.72206350  0.12575763     0.08000
C1410       C  0.22124686  0.73265477  0.14991457    -0.02100
Br1411     Br  0.23596466  0.73409689  0.20977103    -0.00600
Br1412     Br  0.17267585  0.76466607  0.16486343    -0.00700
Br1413     Br  0.25184292  0.71224037  0.04882726    -0.00700
Br1414     Br  0.18452695  0.72494648  0.00302969    -0.00600
C1415       C  0.18634962  0.88824445  0.21814811    -0.01800
C1416       C  0.17818150  0.90029825  0.25346356     0.07900
C1417       C  0.15447283  0.87790012  0.25587632    -0.01900
C1418       C  0.13480551  0.86214315  0.21924887    -0.01900
C1419       C  0.14026496  0.86346695  0.17988221     0.08000
C1420       C  0.16704369  0.87663625  0.18039575    -0.02100
Br1421     Br  0.17918988  0.88149748  0.13099842    -0.00600
Br1422     Br  0.22404330  0.87841782  0.22240481    -0.00700
Br1423     Br  0.09899471  0.85029386  0.22395606    -0.00700
Br1424     Br  0.15218129  0.85963272  0.30962609    -0.00600
C1425       C  0.19751938  0.59728528  0.21102847    -0.01800
C1426       C  0.19651769  0.59001727  0.25246780     0.07900
C1427       C  0.18698550  0.62555259  0.27073031    -0.01900
C1428       C  0.16852535  0.65545817  0.24476718    -0.01900
C1429       C  0.16070636  0.64957371  0.20099497     0.08000
C1430       C  0.17733081  0.62334701  0.18403551    -0.02100
Br1431     Br  0.17058470  0.61681023  0.12459555    -0.00600
Br1432     Br  0.22236946  0.06547261  0.18878849    -0.00700
Br1433     Br  0.15607292  0.70609475  0.26848665    -0.00700
Br1434     Br  0.20693582  0.64193806  0.32665354    -0.00600
C1435       C  0.08058386  0.97202668  0.16413565    -0.01800
C1436       C  0.09232956  0.00979075  0.18738969     0.07900
C1437       C  0.07447649  0.54534159  0.18920298    -0.01900
C1438       C  0.04781459  0.54491527  0.15984507    -0.01900
C1439       C  0.03978686  0.00716681  0.13353971     0.08000
C1440       C  0.05265753  0.96848805  0.15078000    -0.02100
Br1441     Br  0.03614201  0.93502740  0.18578598    -0.00600
Br1442     Br  0.09937724  0.94624044  0.12876163    -0.00700
Br1443     Br  0.02528620  0.59664923  0.15072826    -0.00700
Br1444     Br  0.08612338  0.59479319  0.22581920    -0.00600
C1445       C  0.73502205  0.46256843  0.09562632    -0.01800
C1446       C  0.74761400  0.96115754  0.13911764     0.07900
C1447       C  0.73157373  0.96289433  0.16632618    -0.01900
C1448       C  0.70338996  0.96933234  0.15075208    -0.01900
C1449       C  0.69049280  0.97123442  0.10732696     0.08000
C1450       C  0.70641666  0.46686154  0.07975394    -0.02100
Br1451     Br  0.68907386  0.46800150  0.02055943    -0.00600
Br1452     Br  0.75717017  0.46130977  0.05841753    -0.00700
Br1453     Br  0.68320275  0.97981049  0.18970588    -0.00700
Br1454     Br  0.74877656  0.95682211  0.22541265    -0.00600
C1455       C  0.90325279  0.55657727  0.08362658    -0.01800
C1456       C  0.88462623  0.02111195  0.06647000     0.07900
C1457       C  0.88904934  0.99580512  0.03367867    -0.01900
C1458       C  0.91341778  0.00099272  0.02299024    -0.01900
C1459       C  0.93205788  0.03492854  0.04151977     0.08000
C1460       C  0.92563454  0.56491816  0.06876737    -0.02100
Br1461     Br  0.94924736  0.61601669  0.08795351    -0.00600
Br1462     Br  0.90220290  0.59092493  0.13152617    -0.00700
Br1463     Br  0.92251825  0.95861603  0.98661791    -0.00700
Br1464     Br  0.86203866  0.95335353  0.00352613    -0.00600
C1465       C  0.83533890  0.68983168  0.36869596    -0.01800
C1466       C  0.84602600  0.73243918  0.38149867     0.07900
C1467       C  0.82814259  0.76379818  0.39000834    -0.01900
C1468       C  0.79978710  0.75529033  0.37742494    -0.01900
C1469       C  0.78885659  0.71800093  0.35205117     0.08000
C1470       C  0.80719995  0.68375831  0.34992949    -0.02100
Br1471     Br  0.79595182  0.62941064  0.31957428    -0.00600
Br1472     Br  0.85809466  0.63863122  0.38488985    -0.00700
Br1473     Br  0.77659432  0.79185970  0.39905184    -0.00700
Br1474     Br  0.84241364  0.81617434  0.42250272    -0.00600
C1475       C  0.03184110  0.76456817  0.26683325    -0.01800
C1476       C  0.00335251  0.76643529  0.25764478     0.07900
C1477       C  0.98722395  0.76175040  0.21575740    -0.01900
C1478       C  0.99928978  0.76349264  0.18310904    -0.01900
C1479       C  0.02776794  0.76339760  0.19217468     0.08000
C1480       C  0.04386990  0.76072659  0.23427826    -0.02100
Br1481     Br  0.08166972  0.74512766  0.24744981    -0.00600
Br1482     Br  0.05413249  0.76302731  0.32413222    -0.00700
Br1483     Br  0.97682617  0.76307152  0.12596860    -0.00700
Br1484     Br  0.94951761  0.74395716  0.20342120    -0.00600
C1485       C  0.84676778  0.56677648  0.24231896    -0.01800
C1486       C  0.83977572  0.56779871  0.19766662     0.07900
C1487       C  0.84385675  0.60872788  0.17939962    -0.01900
C1488       C  0.86217355  0.64097327  0.20345248    -0.01900
C1489       C  0.87494536  0.63333498  0.24645893     0.08000
C1490       C  0.86647240  0.59668456  0.26586303    -0.02100
Br1491     Br  0.88658270  0.58118880  0.32242610    -0.00600
Br1492     Br  0.83439533  0.51982807  0.27256306    -0.00700
Br1493     Br  0.87008601  0.69486726  0.17740731    -0.00700
Br1494     Br  0.81884948  0.12510485  0.12670006    -0.00600
C1495       C  0.84258959  0.86002307  0.19942332    -0.01800
C1496       C  0.85375409  0.88175705  0.17035229     0.07900
C1497       C  0.88009627  0.86571553  0.17411259    -0.01900
C1498       C  0.89814045  0.85459351  0.21428780    -0.01900
C1499       C  0.88803693  0.84931379  0.24950824     0.08000
C1500       C  0.85914118  0.84862490  0.24000459    -0.02100
Br1501     Br  0.84074526  0.82791577  0.27936804    -0.00600
Br1502     Br  0.80872786  0.82801570  0.17837845    -0.00700
Br1503     Br  0.93645042  0.85242013  0.21958626    -0.00700
Br1504     Br  0.89141760  0.85930749  0.12494017    -0.00600
C1505       C  0.12440042  0.55917131  0.36542839    -0.01800
C1506       C  0.13997846  0.01946617  0.36926720     0.07900
C1507       C  0.13587278  0.98514096  0.39632529    -0.01900
C1508       C  0.11331820  0.98623660  0.41178574    -0.01900
C1509       C  0.09719806  0.02424535  0.40560905     0.08000
C1510       C  0.10431693  0.56188593  0.38592321    -0.02100
Br1511     Br  0.08365174  0.61560637  0.38369529    -0.00600
Br1512     Br  0.12657424  0.60850847  0.32920011    -0.00700
Br1513     Br  0.10251169  0.93435959  0.43745478    -0.00700
Br1514     Br  0.16125453  0.93699096  0.41348637    -0.00600
C1515       C  0.98103977  0.01722811  0.28413945    -0.01800
C1516       C  0.97609409  0.00490007  0.32218117     0.07900
C1517       C  0.94925821  0.48878169  0.32089492    -0.01900
C1518       C  0.93036984  0.47903750  0.28363075    -0.01900
C1519       C  0.93488160  0.99320222  0.24642908     0.08000
C1520       C  0.96002117  0.01192157  0.24632610    -0.02100
Br1521     Br  0.96456734  0.03199585  0.19412757    -0.00600
Br1522     Br  0.01334974  0.04895188  0.28239309    -0.00700
Br1523     Br  0.89658031  0.45061099  0.28552689    -0.00700
Br1524     Br  0.93477754  0.48477154  0.36925652    -0.00600
C1525       C  0.01086386  0.52210651  0.95118852     0.30100
C1526       C  0.99537778  0.01322909  0.86626545     0.30100
C1527       C  0.98928506  0.55695096  0.92651205    -0.06100
C1528       C  0.03375419  0.53022835  0.92977734    -0.06900
C1529       C  0.99853391  0.97494507  0.93191150    -0.06800
C1530       C  0.98143759  0.54852380  0.88440198    -0.06100
C1531       C  0.02539811  0.52631697  0.88549019    -0.06900
C1532       C  0.99581029  0.97124500  0.89035009    -0.06800
C1533       C  0.96548921  0.58144166  0.86336636    -0.32200
N1534       N  0.96481214  0.61518291  0.88862901     0.14300
C1535       C  0.98028845  0.60179408  0.92797164    -0.32200
H1536       H  0.98659530  0.62357748  0.95464384     0.16300
C1537       C  0.04835532  0.01763437  0.87478423    -0.31100
N1538       N  0.07016244  0.02144836  0.90876438     0.13100
C1539       C  0.06172334  0.02802148  0.94280282    -0.31100
C1540       C  0.98952733  0.92891431  0.87667832    -0.31400
N1541       N  0.98264135  0.90592050  0.90616177     0.13600
H1542       H  0.98549527  0.91799361  0.84472212     0.16200
C1543       C  0.98739182  0.93340882  0.94033756    -0.31400
H1544       H  0.98248419  0.92462864  0.96862170     0.16200
H1545       H  0.07493185  0.02879005  0.97449826     0.16200
H1546       H  0.95732418  0.58283524  0.82969206     0.16300
H1547       H  0.04961587  0.00666106  0.84493902     0.16200
O1548       O  0.98724333  0.72642895  0.80659323    -0.80800
O1549       O  0.89081989  0.71701506  0.87605855    -0.65500
O1550       O  0.93525434  0.74213277  0.80570378    -1.12100
C1551       C  0.96602049  0.86652832  0.89315049     1.06100
O1552       O  0.87884780  0.78747159  0.87588189    -0.78700
O1553       O  0.89669152  0.83918778  0.82448752    -0.66300
Ni1554     Ni  0.95289658  0.69793813  0.78456617     1.34900
C1555       C  0.90652749  0.83911541  0.79389014     0.84800
O1556       O  0.89401682  0.68084482  0.80458616    -0.79300
O1557       O  0.91857601  0.66779394  0.76033834    -0.89500
C1558       C  0.87392119  0.74615394  0.87937205     0.84400
O1559       O  0.96161133  0.66188256  0.83291446    -0.67700
O1560       O  0.94161480  0.86614029  0.89509769    -0.87000
C1561       C  0.95580430  0.65715179  0.86700114     0.85200
C1562       C  0.89709546  0.66305950  0.77173558     1.06800
H1563       H  0.94445385  0.76527907  0.90050112     0.38600
O1564       O  0.93325855  0.77595607  0.87397587    -1.09700
O1565       O  0.93140942  0.82985305  0.79984424    -0.66300
Ni1566     Ni  0.95583699  0.78936409  0.83842187     1.26300
O1567       O  0.93893251  0.68282125  0.87656954    -0.66600
O1568       O  0.97487482  0.83702044  0.87331379    -0.78800
C1569       C  0.99030434  0.76413669  0.79167554     0.84600
O1570       O  0.97865007  0.79748420  0.80179064    -0.66000
Ni1571     Ni  0.91126747  0.82388987  0.88301264     1.27400
Ni1572     Ni  0.91388856  0.72701398  0.84132336     1.26100
H1573       H  0.92282903  0.75450605  0.78119447     0.39100
C1574       C  0.84760610  0.93371018  0.66256354     0.30100
C1575       C  0.84008987  0.52240056  0.67602969     0.30100
C1576       C  0.87158771  0.95921397  0.69118611    -0.06100
C1577       C  0.84364639  0.96411991  0.62304302    -0.06900
C1578       C  0.82149869  0.94605079  0.67411974    -0.06800
C1579       C  0.86741712  0.50292704  0.69886701    -0.06100
C1580       C  0.83878386  0.51075782  0.62962337    -0.06900
C1581       C  0.81870104  0.49066418  0.68281164    -0.06800
C1582       C  0.89239097  0.52440055  0.70995672    -0.32200
N1583       N  0.91198355  0.99535654  0.71058677     0.14300
C1584       C  0.89920005  0.95759660  0.69437892    -0.32200
H1585       H  0.91006344  0.93163279  0.68487263     0.16300
C1586       C  0.84996757  0.53476432  0.60338070    -0.31100
N1587       N  0.86353313  0.00777762  0.58490418     0.13100
C1588       C  0.85966444  0.96535756  0.59642483    -0.31100
C1589       C  0.79128174  0.49956298  0.67241931    -0.31400
N1590       N  0.77688463  0.96301083  0.65619870     0.13600
H1591       H  0.78250644  0.53228038  0.67136526     0.16200
C1592       C  0.79488063  0.93110337  0.65506966    -0.31400
H1593       H  0.78915463  0.90195628  0.63581629     0.16200
H1594       H  0.87150517  0.93799680  0.59141878     0.16200
H1595       H  0.89633983  0.55882950  0.71901084     0.16300
H1596       H  0.85093842  0.57035839  0.60161909     0.16200
C1597       C  0.01994275  0.52122926  0.50036210     0.30100
C1598       C  0.03239290  0.01104979  0.58547276     0.30100
C1599       C  0.04375800  0.55170083  0.52631750    -0.06100
C1600       C  0.99720542  0.53232722  0.52017687    -0.06900
C1601       C  0.02922525  0.97341591  0.51905969    -0.06800
C1602       C  0.05170494  0.54150464  0.56904107    -0.06100
C1603       C  0.00425792  0.02828533  0.56358099    -0.06900
C1604       C  0.03205846  0.96819512  0.56109043    -0.06800
C1605       C  0.06951385  0.57357706  0.58900211    -0.32200
N1606       N  0.06847949  0.60893292  0.56383292     0.14300
C1607       C  0.05229162  0.59669683  0.52505723    -0.32200
H1608       H  0.04475713  0.61958432  0.49926463     0.16300
C1609       C  0.98090609  0.02816196  0.57478111    -0.31100
N1610       N  0.95966658  0.03420561  0.54026558     0.13100
C1611       C  0.96911783  0.03608472  0.50652448    -0.31100
C1612       C  0.03722133  0.92420976  0.57139069    -0.31400
N1613       N  0.04326137  0.90356688  0.54011552     0.13600
H1614       H  0.03946957  0.90835576  0.60113175     0.16200
C1615       C  0.03949289  0.93360694  0.50807283    -0.31400
H1616       H  0.04448565  0.92755924  0.47950041     0.16200
H1617       H  0.95635598  0.03737519  0.47458450     0.16200
H1618       H  0.08001054  0.57450407  0.62169552     0.16300
H1619       H  0.97922389  0.02157505  0.60568276     0.16200
O1620       O  0.04379244  0.72082944  0.64515392    -0.80800
O1621       O  0.13553408  0.72013597  0.56560055    -0.65500
O1622       O  0.09394273  0.74112877  0.63874049    -1.12100
C1623       C  0.05884393  0.86322398  0.54913407     1.06100
O1624       O  0.14663856  0.79122342  0.56487790    -0.78700
O1625       O  0.12660404  0.84684188  0.60668029    -0.66300
Ni1626     Ni  0.07926160  0.69604593  0.66466648     1.34900
C1627       C  0.12016769  0.84541976  0.64027673     0.84800
O1628       O  0.13574218  0.68490833  0.63828835    -0.79300
O1629       O  0.11502761  0.67200737  0.68756318    -0.89500
C1630       C  0.15329723  0.75038112  0.56840308     0.84400
O1631       O  0.07110285  0.65580589  0.61897187    -0.67700
O1632       O  0.08055977  0.86077806  0.53821402    -0.87000
C1633       C  0.07585340  0.65179775  0.58399153     0.85200
C1634       C  0.13561962  0.66996079  0.67385192     1.06800
H1635       H  0.08023457  0.76137722  0.54306025     0.38600
O1636       O  0.09248312  0.77422184  0.56813500    -1.09700
O1637       O  0.09781996  0.82801320  0.64148357    -0.66300
Ni1638     Ni  0.07209111  0.78677120  0.60641365     1.26300
O1639       O  0.08966645  0.68085775  0.57057519    -0.66600
O1640       O  0.05228356  0.83463068  0.57323977    -0.78800
C1641       C  0.04069007  0.75928692  0.65833190     0.84600
O1642       O  0.05145627  0.79313975  0.64579417    -0.66000
Ni1643     Ni  0.11227504  0.82268706  0.55201028     1.27400
Ni1644     Ni  0.11386647  0.72797454  0.60163578     1.26100
H1645       H  0.10706111  0.75493463  0.66217708     0.39100
C1646       C  0.18220625  0.95090997  0.76455465     0.30100
C1647       C  0.19135056  0.54115780  0.76341406     0.30100
C1648       C  0.16247932  0.97722300  0.72988160    -0.06100
C1649       C  0.17886392  0.97621629  0.80316162    -0.06900
C1650       C  0.21096424  0.96623544  0.76593968    -0.06800
C1651       C  0.16658799  0.52312686  0.72887471    -0.06100
C1652       C  0.18501241  0.52313298  0.80349109    -0.06900
C1653       C  0.21529937  0.51214366  0.76365395    -0.06800
C1654       C  0.14066988  0.54199421  0.71383375    -0.32200
N1655       N  0.12152353  0.00931765  0.70622776     0.14300
C1656       C  0.13477590  0.97108867  0.71792434    -0.32200
H1657       H  0.12412171  0.94145798  0.72223234     0.16300
C1658       C  0.17322427  0.54242579  0.83068163    -0.31100
N1659       N  0.15805225  0.01162447  0.84402049     0.13100
C1660       C  0.16008877  0.97250559  0.82521086    -0.31100
C1661       C  0.24225998  0.52038852  0.78510778    -0.31400
N1662       N  0.25422076  0.98165254  0.80064904     0.13600
H1663       H  0.25191346  0.55285211  0.79207105     0.16200
C1664       C  0.23523899  0.94909656  0.79105386    -0.31400
H1665       H  0.23833746  0.91569701  0.80390077     0.16200
H1666       H  0.14640093  0.94486873  0.82406974     0.16200
H1667       H  0.13615112  0.57686453  0.71209142     0.16300
H1668       H  0.17475122  0.57676822  0.83898148     0.16200
C1669       C  0.51995387  0.75594728  0.50939943     0.30100
C1670       C  0.53921178  0.74531574  0.59299971     0.30100
C1671       C  0.54290730  0.79046909  0.53161650    -0.06100
C1672       C  0.49887511  0.76375950  0.53382535    -0.06900
C1673       C  0.53191207  0.70803501  0.52641179    -0.06800
C1674       C  0.55311711  0.78073455  0.57331988    -0.06100
C1675       C  0.50936545  0.76031044  0.57810680    -0.06900
C1676       C  0.53647807  0.70330767  0.56828413    -0.06800
C1677       C  0.56927710  0.81450932  0.59363762    -0.32200
N1678       N  0.56728750  0.84987876  0.56870553     0.14300
C1679       C  0.54983746  0.83688892  0.53059224    -0.32200
H1680       H  0.54067478  0.85977748  0.50546985     0.16300
C1681       C  0.48768466  0.74703962  0.59170126    -0.31100
N1682       N  0.46490062  0.74336166  0.55907433     0.13100
C1683       C  0.47167736  0.75163544  0.52371185    -0.31100
C1684       C  0.54400103  0.66111644  0.58121318    -0.31400
N1685       N  0.55049470  0.63993393  0.55078891     0.13600
H1686       H  0.54941810  0.64970069  0.61333175     0.16200
C1687       C  0.54348245  0.66809644  0.51644892    -0.31400
H1688       H  0.54741849  0.66130622  0.48720794     0.16200
H1689       H  0.45845049  0.74492122  0.49271167     0.16200
H1690       H  0.57854332  0.81568943  0.62712910     0.16300
H1691       H  0.48885573  0.73613278  0.62289032     0.16200
O1692       O  0.54240453  0.96370094  0.64856991    -0.80800
O1693       O  0.64356062  0.95176459  0.59122439    -0.65500
O1694       O  0.59539377  0.97523538  0.65403340    -1.12100
C1695       C  0.56733976  0.60065154  0.56304620     1.06100
O1696       O  0.65479902  0.52289539  0.58714641    -0.78700
O1697       O  0.63508960  0.57916042  0.62903303    -0.66300
Ni1698     Ni  0.57506886  0.93129914  0.67182573     1.34900
C1699       C  0.62844647  0.57488724  0.66245169     0.84800
O1700       O  0.63642534  0.91551968  0.66077424    -0.79300
O1701       O  0.60799468  0.89834669  0.69837206    -0.89500
C1702       C  0.66117010  0.98200402  0.59193263     0.84400
O1703       O  0.56613838  0.89651993  0.62224110    -0.67700
O1704       O  0.59028729  0.59803031  0.55560582    -0.87000
C1705       C  0.57488409  0.89183034  0.59077575     0.85200
C1706       C  0.63126239  0.89617807  0.69185043     1.06800
H1707       H  0.58830088  0.49737819  0.56088565     0.38600
O1708       O  0.59994005  0.50938117  0.58674814    -1.09700
O1709       O  0.60466068  0.56112345  0.66116175    -0.66300
Ni1710     Ni  0.57755808  0.52415006  0.62162728     1.26300
O1711       O  0.59420395  0.91632427  0.58543799    -0.66600
O1712       O  0.56034808  0.57333751  0.58756370    -0.78800
C1713       C  0.53963809  0.00135740  0.66337128     0.84600
O1714       O  0.55436842  0.53341039  0.65677275    -0.66000
Ni1715     Ni  0.62137016  0.55718495  0.57292972     1.27400
Ni1716     Ni  0.61825574  0.96099142  0.62170387     1.26100
H1717       H  0.60745903  0.98620768  0.67975447     0.39100
C1718       C  0.68998867  0.67012065  0.79611988     0.30100
C1719       C  0.69210836  0.76191316  0.79237114     0.30100
C1720       C  0.66732794  0.69340126  0.76337880    -0.06100
C1721       C  0.68631195  0.69359256  0.83559113    -0.06900
C1722       C  0.71735320  0.69173802  0.79634525    -0.06800
C1723       C  0.66919154  0.73925952  0.76012007    -0.06100
C1724       C  0.68640250  0.74211814  0.83280824    -0.06900
C1725       C  0.71807317  0.73786485  0.79235103    -0.06800
C1726       C  0.64298181  0.75490020  0.74718160    -0.32200
N1727       N  0.62527651  0.72104643  0.74263596     0.14300
C1728       C  0.63971136  0.68414342  0.75491269    -0.32200
H1729       H  0.62997096  0.65279734  0.75704440     0.16300
C1730       C  0.66656577  0.75478725  0.85051585    -0.31100
N1731       N  0.65693859  0.71926685  0.86714899     0.13100
C1732       C  0.66873902  0.68229317  0.85834440    -0.31100
C1733       C  0.74464170  0.75153198  0.81117551    -0.31400
N1734       N  0.76018925  0.71624871  0.82853989     0.13600
H1735       H  0.75149582  0.78589973  0.81428982     0.16200
C1736       C  0.74317539  0.68031694  0.82155578    -0.31400
H1737       H  0.74806904  0.64856117  0.83727250     0.16200
H1738       H  0.66308905  0.64917908  0.86507773     0.16200
H1739       H  0.63686655  0.78908244  0.74097025     0.16300
H1740       H  0.65665590  0.78664656  0.84619694     0.16200
C1741       C  0.50788632  0.75771666  0.96063314     0.30100
C1742       C  0.48813029  0.75244119  0.87671410     0.30100
C1743       C  0.48438761  0.79112555  0.94058647    -0.06100
C1744       C  0.52836654  0.77147169  0.93656912    -0.06900
C1745       C  0.49710347  0.70979879  0.94119642    -0.06800
C1746       C  0.47387925  0.78420833  0.89840453    -0.06100
C1747       C  0.51781872  0.77022328  0.89202532    -0.06900
C1748       C  0.49220852  0.70862955  0.89918304    -0.06800
C1749       C  0.45848623  0.81930054  0.87986064    -0.32200
N1750       N  0.46136443  0.85271162  0.90664711     0.14300
C1751       C  0.47871937  0.83728866  0.94377741    -0.32200
H1752       H  0.48887902  0.85860280  0.96960783     0.16300
C1753       C  0.53986637  0.75999805  0.87853592    -0.31100
N1754       N  0.56256509  0.75680983  0.91140980     0.13100
C1755       C  0.55570110  0.76242748  0.94672067    -0.31100
C1756       C  0.48605178  0.66657097  0.88397327    -0.31400
N1757       N  0.48082144  0.64102855  0.91346002     0.13600
H1758       H  0.48040193  0.65784256  0.85125746     0.16200
C1759       C  0.48735577  0.66672549  0.94920376    -0.31400
H1760       H  0.48390430  0.65621563  0.97814930     0.16200
H1761       H  0.56884887  0.75442462  0.97749021     0.16200
H1762       H  0.44979042  0.82320417  0.84643593     0.16300
H1763       H  0.53893303  0.74914073  0.84759485     0.16200
O1764       O  0.48584264  0.96560135  0.81324018    -0.80800
O1765       O  0.38566443  0.95582538  0.87960983    -0.65500
O1766       O  0.43366108  0.97124360  0.81440561    -1.12100
C1767       C  0.46344212  0.60189919  0.89994464     1.06100
O1768       O  0.37611582  0.52770422  0.87661691    -0.78700
O1769       O  0.39838601  0.58776066  0.83994546    -0.66300
Ni1770     Ni  0.45515232  0.92562783  0.80401181     1.34900
C1771       C  0.39969154  0.57535635  0.80437383     0.84800
O1772       O  0.39152336  0.91466938  0.81274417    -0.79300
O1773       O  0.42369706  0.88496115  0.78842197    -0.89500
C1774       C  0.36868615  0.98706182  0.87452447     0.84400
O1775       O  0.46845618  0.90663785  0.86135457    -0.67700
O1776       O  0.44358517  0.59461587  0.91463670    -0.87000
C1777       C  0.45538446  0.89616788  0.88693198     0.85200
C1778       C  0.39886201  0.88851668  0.78857346     1.06800
H1779       H  0.44334369  0.49920666  0.90539820     0.38600
O1780       O  0.43071551  0.51032997  0.88005247    -1.09700
O1781       O  0.42006052  0.55377291  0.80174696    -0.66300
Ni1782     Ni  0.45040485  0.52465623  0.84099914     1.26300
O1783       O  0.43303613  0.91525958  0.88561861    -0.66600
O1784       O  0.46657670  0.57925910  0.86930868    -0.78800
C1785       C  0.48362892  0.00144862  0.79190435     0.84600
O1786       O  0.46970633  0.53339965  0.80007007    -0.66000
Ni1787     Ni  0.41064716  0.55855234  0.89424528     1.27400
Ni1788     Ni  0.41093510  0.96080746  0.84841446     1.26100
H1789       H  0.42176177  0.97834151  0.78705251     0.39100
C1790       C  0.33514473  0.66880270  0.67704194     0.30100
C1791       C  0.33582826  0.76034686  0.68119208     0.30100
C1792       C  0.35892301  0.69088361  0.70959740    -0.06100
C1793       C  0.33879539  0.69254647  0.63716268    -0.06900
C1794       C  0.30854050  0.69118704  0.67817126    -0.06800
C1795       C  0.35844719  0.73662117  0.71199583    -0.06100
C1796       C  0.34039599  0.74112581  0.64013800    -0.06900
C1797       C  0.30936640  0.73750791  0.68084236    -0.06800
C1798       C  0.38488048  0.75196093  0.72315787    -0.32200
N1799       N  0.40179372  0.71793497  0.72908029     0.14300
C1800       C  0.38644332  0.68098659  0.71873903    -0.32200
H1801       H  0.39555262  0.64942008  0.71818317     0.16300
C1802       C  0.36064132  0.75287098  0.62226494    -0.31100
N1803       N  0.36912164  0.71677330  0.60589815     0.13100
C1804       C  0.35581275  0.68055249  0.61428648    -0.31100
C1805       C  0.28365148  0.75296530  0.66115405    -0.31400
N1806       N  0.26689373  0.71824759  0.64620600     0.13600
H1807       H  0.27810839  0.78755797  0.65489717     0.16200
C1808       C  0.28185852  0.68069930  0.65479568    -0.31400
H1809       H  0.27446376  0.64824751  0.64236344     0.16200
H1810       H  0.36038848  0.64721837  0.60769918     0.16200
H1811       H  0.39176727  0.78614880  0.72756492     0.16300
H1812       H  0.37154291  0.78430894  0.62642753     0.16200
C1813       C  0.37158137  0.86941418  0.71444040    -0.01800
C1814       C  0.37689051  0.86270157  0.75800400     0.07900
C1815       C  0.35849280  0.83615960  0.77177124    -0.01900
C1816       C  0.33809352  0.81120363  0.74286718    -0.01900
C1817       C  0.33810640  0.80823577  0.70003749     0.08000
C1818       C  0.35177420  0.84288191  0.68555884    -0.02100
Br1819     Br  0.34036696  0.85768352  0.62728738    -0.00600
Br1820     Br  0.39090102  0.91562654  0.69437020    -0.00700
Br1821     Br  0.31418665  0.77497066  0.76530292    -0.00700
Br1822     Br  0.36293032  0.83052040  0.83089347    -0.00600
C1823       C  0.35057813  0.59960731  0.76626494    -0.01800
C1824       C  0.37652827  0.58550413  0.76448272     0.07900
C1825       C  0.37781859  0.57517026  0.72340039    -0.01900
C1826       C  0.35738875  0.59096421  0.68727950    -0.01900
C1827       C  0.33621173  0.61842929  0.69107294     0.08000
C1828       C  0.33000795  0.61111169  0.72923752    -0.02100
Br1829     Br  0.29278977  0.61201341  0.73022230    -0.00600
Br1830     Br  0.34108687  0.60108374  0.81780284    -0.00700
Br1831     Br  0.35358246  0.56506795  0.63384537    -0.00700
Br1832     Br  0.40799905  0.54402652  0.71400189    -0.00600
C1833       C  0.46982673  0.75338267  0.79563663    -0.01800
C1834       C  0.46682916  0.74336096  0.83513701     0.07900
C1835       C  0.44121086  0.72493181  0.83794499    -0.01900
C1836       C  0.42105321  0.71350914  0.80260091    -0.01900
C1837       C  0.42525445  0.71978785  0.76367223     0.08000
C1838       C  0.44919403  0.74008174  0.75982044    -0.02100
Br1839     Br  0.45198636  0.75307296  0.70493901    -0.00600
Br1840     Br  0.49825482  0.79247908  0.78931726    -0.00700
Br1841     Br  0.38548880  0.69655853  0.80805838    -0.00700
Br1842     Br  0.43104029  0.71615727  0.88986362    -0.00600
C1843       C  0.61128418  0.69420892  0.87177176    -0.01800
C1844       C  0.63492088  0.72157309  0.88549102     0.07900
C1845       C  0.63589321  0.75475834  0.91540668    -0.01900
C1846       C  0.61213425  0.76641690  0.92506107    -0.01900
C1847       C  0.58819787  0.74105540  0.90889502     0.08000
C1848       C  0.58894726  0.70209316  0.88651346    -0.02100
Br1849     Br  0.55954983  0.65907508  0.87779117    -0.00600
Br1850     Br  0.60694419  0.64955400  0.82950355    -0.00700
Br1851     Br  0.61206713  0.81865920  0.95789026    -0.00700
Br1852     Br  0.66999320  0.78364312  0.94350787    -0.00600
C1853       C  0.52209425  0.04390882  0.71620388    -0.01800
C1854       C  0.52133522  0.00562675  0.69110014     0.07900
C1855       C  0.50394157  0.46988841  0.69512682    -0.01900
C1856       C  0.49191990  0.46877843  0.72787314    -0.01900
C1857       C  0.49553479  0.00435130  0.75607611     0.08000
C1858       C  0.50899917  0.04328687  0.74797384    -0.02100
Br1859     Br  0.51046740  0.09582451  0.78137043    -0.00600
Br1860     Br  0.54062226  0.09830701  0.70804483    -0.00700
Br1861     Br  0.46949765  0.41773519  0.73243601    -0.00700
Br1862     Br  0.49469617  0.42178577  0.65488914    -0.00600
C1863       C  0.67210009  0.84538909  0.70754863    -0.01800
C1864       C  0.65368201  0.87033202  0.72204962     0.07900
C1865       C  0.65841499  0.87259885  0.76600291    -0.01900
C1866       C  0.67781013  0.84436025  0.79343105    -0.01900
C1867       C  0.69118925  0.81163115  0.77727175     0.08000
C1868       C  0.69204791  0.81914591  0.73553418    -0.02100
Br1869     Br  0.71821617  0.78980856  0.71404096    -0.00600
Br1870     Br  0.66826120  0.84164906  0.64855509    -0.00700
Br1871     Br  0.69114699  0.85729993  0.85198219    -0.00700
Br1872     Br  0.63904767  0.91462730  0.78927477    -0.00600
C1873       C  0.64563972  0.57760090  0.74409951    -0.01800
C1874       C  0.64979163  0.58592347  0.70430097     0.07900
C1875       C  0.67685537  0.59912314  0.70595285    -0.01900
C1876       C  0.69567690  0.61281370  0.74406337    -0.01900
C1877       C  0.68756434  0.62008962  0.78059459     0.08000
C1878       C  0.66503985  0.59300976  0.78171173    -0.02100
Br1879     Br  0.66494953  0.56801588  0.83440407    -0.00600
Br1880     Br  0.61381956  0.54636638  0.74939779    -0.00700
Br1881     Br  0.73353203  0.61484554  0.74679628    -0.00700
Br1882     Br  0.69039956  0.59695235  0.65776507    -0.00600
C1883       C  0.43688709  0.69340589  0.58874056    -0.01800
C1884       C  0.43871571  0.72965215  0.56262757     0.07900
C1885       C  0.41552442  0.75580954  0.54506623    -0.01900
C1886       C  0.39173206  0.74814312  0.55670164    -0.01900
C1887       C  0.39156579  0.71704115  0.58832638     0.08000
C1888       C  0.41412467  0.68851804  0.60349417    -0.02100
Br1889     Br  0.41609038  0.64529369  0.64698979    -0.00600
Br1890     Br  0.46547562  0.64970139  0.60338687    -0.00700
Br1891     Br  0.35895839  0.77988136  0.52904576    -0.00700
Br1892     Br  0.41650426  0.80434249  0.50749138    -0.00600
C1893       C  0.55643963  0.74810709  0.67404745    -0.01800
C1894       C  0.55971934  0.73635675  0.63519555     0.07900
C1895       C  0.58587836  0.72068824  0.63361914    -0.01900
C1896       C  0.60592385  0.71130533  0.66960463    -0.01900
C1897       C  0.60186490  0.72067393  0.70795133     0.08000
C1898       C  0.57757187  0.73919448  0.71060232    -0.02100
Br1899     Br  0.57484750  0.75568863  0.76449659    -0.00600
Br1900     Br  0.52754514  0.78601294  0.67808741    -0.00700
Br1901     Br  0.64109215  0.69240715  0.66528136    -0.00700
Br1902     Br  0.59770355  0.71685700  0.58280727    -0.00600
C1903       C  0.29989650  0.97087645  0.79599742    -0.01800
C1904       C  0.28259381  0.97611744  0.82077458     0.07900
C1905       C  0.29335632  0.98075786  0.86414036    -0.01900
C1906       C  0.32178552  0.98138199  0.88269451    -0.01900
C1907       C  0.33929176  0.97776611  0.85754901     0.08000
C1908       C  0.32807712  0.97371477  0.81389150    -0.02100
Br1909     Br  0.35028428  0.98021222  0.77702345    -0.00600
Br1910     Br  0.28445592  0.96260518  0.73676344    -0.00700
Br1911     Br  0.33670345  0.99106739  0.94167433    -0.00700
Br1912     Br  0.26882633  0.98818499  0.89702886    -0.00600
C1913       C  0.19371255  0.74296538  0.63076766    -0.01800
C1914       C  0.18244351  0.73957303  0.58708620     0.07900
C1915       C  0.19938296  0.72798472  0.56272133    -0.01900
C1916       C  0.22743218  0.72054322  0.58205487    -0.01900
C1917       C  0.23815786  0.72202452  0.62585976     0.08000
C1918       C  0.22107057  0.73265267  0.64998387    -0.02100
Br1919     Br  0.23574141  0.73398878  0.70984896    -0.00600
Br1920     Br  0.17248805  0.76471122  0.66484992    -0.00700
Br1921     Br  0.25167686  0.71182971  0.54896003    -0.00700
Br1922     Br  0.18434292  0.72432027  0.50313399    -0.00600
C1923       C  0.18630191  0.88814006  0.71799901    -0.01800
C1924       C  0.17818321  0.90013947  0.75336759     0.07900
C1925       C  0.15450888  0.87770506  0.75586217    -0.01900
C1926       C  0.13481482  0.86192594  0.71927448    -0.01900
C1927       C  0.14019759  0.86337507  0.67984789     0.08000
C1928       C  0.16695117  0.87659896  0.68027276    -0.02100
Br1929     Br  0.17900312  0.88159424  0.63079956    -0.00600
Br1930     Br  0.22398802  0.87848970  0.72209978    -0.00700
Br1931     Br  0.09906635  0.84986288  0.72414130    -0.00700
Br1932     Br  0.15234844  0.85936480  0.80966595    -0.00600
C1933       C  0.19751671  0.59709972  0.71093925    -0.01800
C1934       C  0.19648750  0.58982150  0.75236664     0.07900
C1935       C  0.18692142  0.62534408  0.77059479    -0.01900
C1936       C  0.16845869  0.65523163  0.74460252    -0.01900
C1937       C  0.16067396  0.64936293  0.70082817     0.08000
C1938       C  0.17735215  0.62319704  0.68391715    -0.02100
Br1939     Br  0.17074763  0.61687859  0.62448918    -0.00600
Br1940     Br  0.22235453  0.06531737  0.68877234    -0.00700
Br1941     Br  0.15598839  0.70587471  0.76828232    -0.00700
Br1942     Br  0.20685713  0.64176600  0.82651104    -0.00600
C1943       C  0.08058714  0.97190251  0.66393143    -0.01800
C1944       C  0.09235096  0.00963717  0.68721067     0.07900
C1945       C  0.07451898  0.54523446  0.68903128    -0.01900
C1946       C  0.04785529  0.54484840  0.65968295    -0.01900
C1947       C  0.03979084  0.00706544  0.63342978     0.08000
C1948       C  0.05266016  0.96837813  0.65065104    -0.02100
Br1949     Br  0.03619809  0.93502566  0.68579150    -0.00600
Br1950     Br  0.09933028  0.94619890  0.62844765    -0.00700
Br1951     Br  0.02534190  0.59659475  0.65063674    -0.00700
Br1952     Br  0.08617604  0.59462408  0.72571621    -0.00600
C1953       C  0.73513743  0.46197883  0.59560064    -0.01800
C1954       C  0.74771190  0.96126811  0.63893167     0.07900
C1955       C  0.73163086  0.96323245  0.66606635    -0.01900
C1956       C  0.70343520  0.96944398  0.65037505    -0.01900
C1957       C  0.69057705  0.97098692  0.60692953     0.08000
C1958       C  0.70652493  0.46613303  0.57962428    -0.02100
Br1959     Br  0.68921719  0.46649254  0.52041382    -0.00600
Br1960     Br  0.75731744  0.46020152  0.55845708    -0.00700
Br1961     Br  0.68314665  0.97998668  0.68918004    -0.00700
Br1962     Br  0.74878929  0.95777787  0.72522066    -0.00600
C1963       C  0.90345408  0.55671629  0.58406377    -0.01800
C1964       C  0.88473258  0.02145441  0.56671870     0.07900
C1965       C  0.88901014  0.99637026  0.53370881    -0.01900
C1966       C  0.91333894  0.00154518  0.52291519    -0.01900
C1967       C  0.93208985  0.03528049  0.54161233     0.08000
C1968       C  0.92578412  0.56510300  0.56909748    -0.02100
Br1969     Br  0.94947209  0.61608990  0.58840478    -0.00600
Br1970     Br  0.90254951  0.59078030  0.63219209    -0.00700
Br1971     Br  0.92221487  0.95937422  0.48616361    -0.00700
Br1972     Br  0.86183447  0.95424145  0.50342181    -0.00600
C1973       C  0.83544488  0.68998681  0.86876863    -0.01800
C1974       C  0.84612698  0.73258566  0.88165611     0.07900
C1975       C  0.82825456  0.76386509  0.89030840    -0.01900
C1976       C  0.79988948  0.75540165  0.87766772    -0.01900
C1977       C  0.78895036  0.71810631  0.85230049     0.08000
C1978       C  0.80728998  0.68386112  0.85016374    -0.02100
Br1979     Br  0.79598445  0.62936511  0.82006642    -0.00600
Br1980     Br  0.85829729  0.63881543  0.88435663    -0.00700
Br1981     Br  0.77668266  0.79206760  0.89917663    -0.00700
Br1982     Br  0.84258230  0.81598651  0.92316218    -0.00600
C1983       C  0.03188980  0.76460005  0.76693237    -0.01800
C1984       C  0.00340681  0.76652158  0.75778340     0.07900
C1985       C  0.98724825  0.76182211  0.71591433    -0.01900
C1986       C  0.99928796  0.76351398  0.68323946    -0.01900
C1987       C  0.02776069  0.76323343  0.69226967     0.08000
C1988       C  0.04388054  0.76055223  0.73435924    -0.02100
Br1989     Br  0.08163049  0.74465753  0.74749330    -0.00600
Br1990     Br  0.05422705  0.76336034  0.82421013    -0.00700
Br1991     Br  0.97678954  0.76334353  0.62611999    -0.00700
Br1992     Br  0.94953900  0.74407168  0.70363481    -0.00600
C1993       C  0.84682935  0.56698041  0.74251780    -0.01800
C1994       C  0.83981065  0.56795074  0.69787430     0.07900
C1995       C  0.84388914  0.60884652  0.67955831    -0.01900
C1996       C  0.86223997  0.64109095  0.70355131    -0.01900
C1997       C  0.87503479  0.63349741  0.74656575     0.08000
C1998       C  0.86660233  0.59682651  0.76599580    -0.02100
Br1999     Br  0.88694521  0.58107566  0.82237433    -0.00600
Br2000     Br  0.83441499  0.52012950  0.77280258    -0.00700
Br2001     Br  0.87023161  0.69482312  0.67735835    -0.00700
Br2002     Br  0.81882389  0.12521772  0.62686353    -0.00600
C2003       C  0.84269662  0.86024363  0.69963752    -0.01800
C2004       C  0.85384553  0.88193678  0.67052549     0.07900
C2005       C  0.88017794  0.86587648  0.67426558    -0.01900
C2006       C  0.89823815  0.85476623  0.71443495    -0.01900
C2007       C  0.88815389  0.84951637  0.74968038     0.08000
C2008       C  0.85926082  0.84886890  0.74021362    -0.02100
Br2009     Br  0.84087336  0.82827825  0.77963079    -0.00600
Br2010     Br  0.80881904  0.82826260  0.67867360    -0.00700
Br2011     Br  0.93653892  0.85256902  0.71968634    -0.00700
Br2012     Br  0.89142795  0.85935598  0.62504465    -0.00600
C2013       C  0.12436930  0.55879862  0.86533310    -0.01800
C2014       C  0.13995225  0.01925538  0.86917722     0.07900
C2015       C  0.13584668  0.98496554  0.89626716    -0.01900
C2016       C  0.11331492  0.98612472  0.91178064    -0.01900
C2017       C  0.09718523  0.02412721  0.90554195     0.08000
C2018       C  0.10427139  0.56148562  0.88579896    -0.02100
Br2019     Br  0.08346234  0.61510073  0.88328665    -0.00600
Br2020     Br  0.12654307  0.60813010  0.82909624    -0.00700
Br2021     Br  0.10254896  0.93433301  0.93761452    -0.00700
Br2022     Br  0.16120062  0.93677294  0.91339226    -0.00600
C2023       C  0.98111111  0.01744074  0.78427232    -0.01800
C2024       C  0.97614592  0.00512460  0.82230359     0.07900
C2025       C  0.94932864  0.48903191  0.82108546    -0.01900
C2026       C  0.93044782  0.47927233  0.78382728    -0.01900
C2027       C  0.93496926  0.99336673  0.74653783     0.08000
C2028       C  0.96011174  0.01209070  0.74644759    -0.02100
Br2029     Br  0.96470975  0.03206481  0.69425370    -0.00600
Br2030     Br  0.01342641  0.04916718  0.78253528    -0.00700
Br2031     Br  0.89667121  0.45081993  0.78574534    -0.00700
Br2032     Br  0.93484749  0.48505008  0.86945159    -0.00600
loop_ 
_geom_bond_atom_site_label_1 
_geom_bond_atom_site_label_2 
_geom_bond_distance 
_geom_bond_site_symmetry_2 
_ccdc_geom_bond_type 
C1            C3   1.577   1_455  S
C1            C4   1.566       .  S
C1         C1021   1.607   1_445  S
C1          C581   1.584       .  S
C2            C8   1.487       .  S
C2          C500   1.536       .  S
C2         C1022   1.523       .  S
C2         C1023   1.533   1_655  S
C3           C11   1.436       .  A
C3            C6   1.377       .  A
C4            C7   1.427       .  A
C4         C1031   1.383       .  A
C5         C1017   1.606   1_655  S
C5           C19   1.425       .  A
C5            C8   1.367       .  A
C6         C1018   1.523       .  S
C6            C9   1.348       .  A
C7         C1018   1.533   1_455  S
C7         C1029   1.369       .  A
C8           C16   1.357       .  A
C9           N10   1.336       .  A
C9           H22   1.085       .  S
N10          C11   1.386       .  A
N10          C37   1.459       .  S
C11          H12   1.082       .  S
C13        C1023   1.369       .  A
C13          N14   1.349       .  A
C13          H23   1.079       .  S
N14          C15   1.355       .  A
N14         C493   1.428       .  S
C15        C1020   1.383       .  A
C15          H21   1.081       .  S
C16          N17   1.330       .  A
C16          H18   1.085       .  S
N17          C19   1.381       .  A
N17          C27   1.442       .  S
C19          H20   1.082       .  S
O24         Ni30   1.898       .  S
O24          C45   1.259       .  A
O25         Ni48   1.914       .  S
O25          C34   1.271       .  A
O26         Ni30   1.878       .  S
O26         Ni48   1.897       .  S
O26         Ni42   1.908       .  S
O26          H49   0.956       .  S
C27          O44   1.281       .  A
C27          O36   1.277       .  A
O28         Ni47   1.937       .  S
O28          C34   1.273       .  A
O29         Ni47   1.940       .  S
O29          C31   1.273       .  A
Ni30         O33   1.929       .  S
Ni30         O35   1.886       .  S
C31          O41   1.272       .  A
C31         C483   1.539       .  S
O32         Ni48   1.932       .  S
O32          C38   1.283       .  A
O33          C38   1.278       .  A
C34         C450   1.505       .  S
O35          C37   1.272       .  A
O36         Ni47   1.947       .  S
C37          O43   1.281       .  A
C38         C473   1.486       .  S
H39          O40   0.962       .  S
O40         Ni48   1.923       .  S
O40         Ni42   1.933       .  S
O40         Ni47   1.925       .  S
O41         Ni42   1.947       .  S
Ni42         O46   1.947       .  S
Ni42         O44   1.922       .  S
O43         Ni48   1.985       .  S
C45          O46   1.274       .  A
C45         C460   1.486   1_655  S
C50          C52   1.524       .  S
C50          C54   1.556       .  S
C50          C53   1.567       .  S
C50         C480   1.595       .  S
C51          C55   1.513       .  S
C51          C57   1.511   1_545  S
C51          C56   1.584       .  S
C51         C470   1.561       .  S
C52          C60   1.395       .  A
C52        C1071   1.374       .  A
C53          C64   1.384       .  A
C53        C1072   1.459       .  A
C54          C68   1.400       .  A
C54        C1073   1.396       .  A
C55          C58   1.380       .  A
C55        C1068   1.374   1_545  A
C56          C62   1.379       .  A
C56        C1069   1.459   1_545  A
C57          C65   1.380       .  A
C57        C1070   1.396       .  A
C58        N1075   1.340   1_545  A
C58          H71   1.080       .  S
N59          C60   1.339       .  A
N59        C1074   1.340       .  A
N59         C503   1.421       .  S
C60          H61   1.070       .  S
C62        N1079   1.350       .  A
C62          H72   1.070       .  S
N63          C64   1.356       .  A
N63        C1078   1.350       .  A
N63         C440   1.452       .  S
C64          H70   1.074       .  S
C65        N1082   1.344       .  A
C65          H67   1.083   1_565  S
N66          C68   1.351       .  A
N66        C1081   1.344       .  A
N66         C430   1.442       .  S
C68          H69   1.078       .  S
C73          C75   1.566       .  S
C73          C76   1.550   1_455  S
C73        C1093   1.585   1_545  S
C73         C509   1.584   1_554  S
C74          C80   1.530       .  S
C74          C79   1.514       .  S
C74         C423   1.546       .  S
C74        C1094   1.552       .  S
C75          C83   1.418       .  A
C75          C78   1.403       .  A
C76        C1103   1.387       .  A
C76        C1095   1.397   1_655  A
C77        C1089   1.585       .  S
C77          C91   1.409       .  A
C77          C80   1.384       .  A
C78        C1090   1.552       .  S
C78          C81   1.357       .  A
C79          C85   1.362   1_455  A
C79        C1092   1.397   1_455  A
C80          C88   1.371       .  A
C81          N82   1.342       .  A
C81          H94   1.072       .  S
N82          C83   1.374       .  A
N82         C109   1.453       .  S
C83          H84   1.082   1_554  S
C85          N86   1.351       .  A
C85          H95   1.083       .  S
N86          C87   1.359       .  A
N86         C443   1.435       .  S
C87        C1092   1.387       .  A
C87          H93   1.081   1_554  S
C88          N89   1.341       .  A
C88          H90   1.078       .  S
N89          C91   1.368       .  A
N89          C99   1.442       .  S
C91          H92   1.082   1_554  S
O96        Ni102   1.908       .  S
O96         C117   1.270       .  A
O97        Ni120   1.892       .  S
O97         C106   1.263       .  A
O98        Ni102   1.869       .  S
O98        Ni120   1.881       .  S
O98        Ni114   1.902       .  S
O98         H121   0.966       .  S
C99         O116   1.282       .  A
C99         O108   1.279       .  A
O100       Ni119   1.950       .  S
O100        C106   1.273       .  A
O101       Ni119   1.911       .  S
O101        C103   1.267       .  A
Ni102       O105   1.922       .  S
Ni102       O107   1.907       .  S
C103        O113   1.268       .  A
C103        C403   1.520       .  S
O104       Ni120   1.910       .  S
O104        C110   1.273       .  A
O105        C110   1.277       .  A
C106        C390   1.486       .  S
O107        C109   1.276       .  A
O108       Ni119   1.946       .  S
C109        O115   1.277       .  A
C110        C413   1.480       .  S
H111        O112   0.970       .  S
O112       Ni120   1.920       .  S
O112       Ni114   1.928       .  S
O112       Ni119   1.927       .  S
O113       Ni114   1.933       .  S
Ni114       O118   1.939       .  S
Ni114       O116   1.919       .  S
O115       Ni120   1.963       .  S
C117        O118   1.276       .  A
C117        C463   1.487       .  S
C122        C124   1.523       .  S
C122        C126   1.531       .  S
C122        C125   1.564       .  S
C122        C400   1.570       .  S
C123        C127   1.544       .  S
C123        C129   1.518       .  S
C123        C128   1.565       .  S
C123        C410   1.541       .  S
C124        C132   1.373       .  A
C124       C1143   1.389       .  A
C125        C136   1.383       .  A
C125       C1144   1.433       .  A
C126        C140   1.388       .  A
C126       C1145   1.393       .  A
C127        C130   1.406       .  A
C127       C1140   1.389   1_545  A
C128        C134   1.374       .  A
C128       C1141   1.433   1_545  A
C129        C137   1.382       .  A
C129       C1142   1.393   1_545  A
C130       N1147   1.350       .  A
C130        H143   1.073       .  S
N131        C132   1.339       .  A
N131       C1146   1.350       .  A
N131        C420   1.449       .  S
C132        H133   1.069       .  S
C134       N1151   1.352       .  A
C134        H144   1.066       .  S
N135        C136   1.359       .  A
N135       C1150   1.352       .  A
N135        C490   1.453       .  S
C136        H142   1.074       .  S
C137       N1154   1.345   1_545  A
C137        H139   1.083       .  S
N138        C140   1.344       .  A
N138       C1153   1.345       .  A
N138        C380   1.428       .  S
C140        H141   1.082       .  S
C145        C147   1.577       .  S
C145        C149   1.606       .  S
C145        C148   1.563       .  S
C145        C725   1.571   1_554  S
C146        C150   1.524       .  S
C146        C152   1.498       .  S
C146        C151   1.542       .  S
C146        C370   1.522       .  S
C147        C155   1.436       .  A
C147        C150   1.374       .  A
C148        C159   1.384       .  A
C148        C151   1.429       .  A
C149        C163   1.433       .  A
C149        C152   1.363       .  A
C150        C153   1.357       .  A
C151        C157   1.377       .  A
C152        C160   1.359       .  A
C153        N154   1.331       .  A
C153        H166   1.086       .  S
N154        C155   1.386       .  A
N154        C181   1.457       .  S
C155        H156   1.081       .  S
C157        N158   1.353       .  A
C157        H167   1.079       .  S
N158        C159   1.353       .  A
N158        C360   1.441       .  S
C159        H165   1.082   1_554  S
C160        N161   1.335       .  A
C160        H162   1.085       .  S
N161        C163   1.386       .  A
N161        C171   1.457       .  S
C163        H164   1.082   1_554  S
O168       Ni174   1.908       .  S
O168        C189   1.266       .  A
O169       Ni192   1.904       .  S
O169        C178   1.268       .  A
O170       Ni174   1.872       .  S
O170       Ni192   1.877       .  S
O170      Ni1202   1.902       .  S
O170        H193   0.961       .  S
C171        O188   1.278       .  A
C171        O180   1.282       .  A
O172       Ni191   1.952       .  S
O172       C1194   1.276   1_545  A
O173       Ni191   1.927       .  S
O173        C175   1.271       .  A
Ni174       O177   1.946       .  S
Ni174       O179   1.910       .  S
C175        O185   1.275       .  A
C175        C350   1.543       .  S
O176       Ni192   1.934       .  S
O176        C182   1.282       .  A
O177        C182   1.283       .  A
C178       O1188   1.276       .  A
C178        C433   1.489       .  S
O179        C181   1.275       .  A
O180       Ni191   1.974       .  S
C181        O187   1.281       .  A
C182        C340   1.512       .  S
H183        O184   0.968   1_565  S
O184       Ni186   1.929       .  S
O184       Ni191   1.931       .  S
O184      Ni1208   1.937   1_545  S
O185       Ni186   1.958       .  S
Ni186       O190   1.935       .  S
Ni186       O188   1.919       .  S
Ni186      O1186   1.902   1_545  S
O187       Ni192   1.977       .  S
C189       O1206   1.272       .  A
C189        C330   1.515       .  S
O190       C1205   1.272       .  A
Ni192      O1200   1.937       .  S
C194        C196   1.521       .  S
C194        C198   1.541       .  S
C194        C197   1.569       .  S
C194        C353   1.585       .  S
C195        C199   1.505       .  S
C195        C201   1.529       .  S
C195        C200   1.580       .  S
C195        C343   1.568       .  S
C196        C204   1.390       .  A
C196        C199   1.384       .  A
C197        C208   1.383       .  A
C197        C200   1.458       .  A
C198        C212   1.395       .  A
C198        C201   1.391       .  A
C199        C202   1.378       .  A
C200        C206   1.384       .  A
C201        C209   1.384       .  A
C202        N203   1.334       .  A
C202        H215   1.078       .  S
N203        C204   1.336       .  A
N203        C373   1.408       .  S
C204        H205   1.071       .  S
C206        N207   1.352       .  A
C206        H216   1.079       .  S
N207        C208   1.350       .  A
N207        C320   1.444       .  S
C208        H214   1.072       .  S
C209        N210   1.356       .  A
C209        H211   1.081       .  S
N210        C212   1.357       .  A
N210        C453   1.461       .  S
C212        H213   1.081       .  S
C217        C219   1.569       .  S
C217        C221   1.608       .  S
C217        C220   1.555       .  S
C217        C653   1.569       .  S
C218        C222   1.527       .  S
C218        C224   1.496       .  S
C218        C223   1.550       .  S
C218        C310   1.523       .  S
C219        C227   1.432       .  A
C219        C222   1.376       .  A
C220        C231   1.377       .  A
C220        C223   1.434       .  A
C221        C235   1.431       .  A
C221        C224   1.359       .  A
C222        C225   1.359       .  A
C223        C229   1.380       .  A
C224        C232   1.365       .  A
C225        N226   1.332       .  A
C225        H238   1.085       .  S
N226        C227   1.382       .  A
N226        C253   1.452       .  S
C227        H228   1.081       .  S
C229        N230   1.354       .  A
C229        H239   1.080       .  S
N230        C231   1.347       .  A
N230        C323   1.435       .  S
C231        H237   1.082       .  S
C232        N233   1.333       .  A
C232        H234   1.085       .  S
N233        C235   1.387       .  A
N233        C243   1.458       .  S
C235        H236   1.082       .  S
O240       Ni246   1.921       .  S
O240        C261   1.274       .  A
O241       Ni264   1.900       .  S
O241        C250   1.267       .  A
O242       Ni246   1.873       .  S
O242       Ni264   1.882       .  S
O242      Ni1274   1.906       .  S
O242        H265   0.966       .  S
C243        O260   1.290       .  A
C243        O252   1.275       .  A
O244       Ni263   1.925       .  S
O244       C1266   1.268   1_545  A
O245       Ni263   1.950       .  S
O245        C247   1.276       .  A
Ni246       O249   1.959       .  S
Ni246       O251   1.927       .  S
C247        O257   1.267       .  A
C247        C300   1.540       .  S
O248       Ni264   1.907       .  S
O248        C254   1.274       .  A
O249        C254   1.286       .  A
C250       O1260   1.268       .  A
C250        C383   1.474       .  S
O251        C253   1.272       .  A
O252       Ni263   1.947       .  S
C253        O259   1.282       .  A
C254        C290   1.495       .  S
H255        O256   0.966   1_565  S
O256       Ni258   1.922       .  S
O256       Ni263   1.934       .  S
O256      Ni1280   1.930   1_545  S
O257       Ni258   1.937       .  S
Ni258       O262   1.932       .  S
Ni258       O260   1.952       .  S
Ni258      O1258   1.906   1_545  S
O259       Ni264   1.975       .  S
C261       O1278   1.275       .  A
C261        C333   1.504       .  S
O262       C1277   1.275       .  A
Ni264      O1272   1.930       .  S
C266        C268   1.528       .  S
C266        C270   1.546       .  S
C266        C269   1.569       .  S
C266        C303   1.576       .  S
C267        C271   1.494       .  S
C267        C273   1.512       .  S
C267        C272   1.582       .  S
C267        C293   1.565       .  S
C268        C276   1.394       .  A
C268        C271   1.377       .  A
C269        C280   1.378       .  A
C269        C272   1.462       .  A
C270        C284   1.400       .  A
C270        C273   1.393       .  A
C271        C274   1.374       .  A
C272        C278   1.388       .  A
C273        C281   1.379       .  A
C274        N275   1.327       .  A
C274        H287   1.078       .  S
N275        C276   1.340       .  A
N275        C313   1.409       .  S
C276        H277   1.066       .  S
C278        N279   1.355       .  A
C278        H288   1.079       .  S
N279        C280   1.347       .  A
N279        C363   1.444       .  S
C280        H286   1.071       .  S
C281        N282   1.345       .  A
C281        H283   1.083       .  S
N282        C284   1.355       .  A
N282        C393   1.441       .  S
C284        H285   1.082       .  S
C289        C290   1.420       .  A
C289        C294   1.422       .  A
C289       Br296   1.924       .  S
C290        C291   1.404       .  A
C291        C292   1.413       .  A
C291       Br298   1.937       .  S
C292        C293   1.443       .  A
C292       Br297   1.938       .  S
C293        C294   1.408       .  A
C294       Br295   1.920       .  S
C299        C300   1.426       .  A
C299        C304   1.419       .  A
C299       Br306   1.934       .  S
C300        C301   1.438       .  A
C301        C302   1.434       .  A
C301       Br308   1.931       .  S
C302        C303   1.413       .  A
C302       Br307   1.919       .  S
C303        C304   1.424       .  A
C304       Br305   1.927       .  S
C309        C310   1.409       .  A
C309        C314   1.407       .  A
C309       Br316   1.921       .  S
C310        C311   1.450       .  A
C311        C312   1.369       .  A
C311       Br318   1.978       .  S
C312        C313   1.398       .  A
C312       Br317   1.952       .  S
C313        C314   1.406       .  A
C314       Br315   1.927       .  S
C319        C320   1.419       .  A
C319        C324   1.404       .  A
C319       Br326   1.925       .  S
C320        C321   1.412       .  A
C321        C322   1.405       .  A
C321       Br328   1.928       .  S
C322        C323   1.407       .  A
C322       Br327   1.927       .  S
C323        C324   1.404       .  A
C324       Br325   1.931       .  S
C329        C330   1.425       .  A
C329        C334   1.420       .  A
C329       Br336   1.936       .  S
C330       C1347   1.425       .  A
C331        C332   1.412       .  A
C331       C1346   1.425   1_565  A
C331       Br338   1.945       .  S
C332       C1349   1.417   1_565  A
C332       Br337   1.937       .  S
C333        C334   1.414       .  A
C333       C1348   1.417       .  A
C334       Br335   1.933       .  S
C339        C340   1.414       .  A
C339        C344   1.414       .  A
C339       Br346   1.937       .  S
C340        C341   1.426       .  A
C341        C342   1.425       .  A
C341       Br348   1.928       .  S
C342        C343   1.410       .  A
C342       Br347   1.924       .  S
C343        C344   1.431       .  A
C344       Br345   1.933       .  S
C349        C350   1.434       .  A
C349        C354   1.436       .  A
C349       Br356   1.928       .  S
C350        C351   1.428       .  A
C351        C352   1.419       .  A
C351       Br358   1.944       .  S
C352        C353   1.427       .  A
C352       Br357   1.923       .  S
C353        C354   1.415       .  A
C354       Br355   1.917       .  S
C359        C360   1.410       .  A
C359        C364   1.406       .  A
C359       Br366   1.936       .  S
C360        C361   1.412       .  A
C361        C362   1.407       .  A
C361       Br368   1.927       .  S
C362        C363   1.409       .  A
C362       Br367   1.929       .  S
C363        C364   1.419       .  A
C364       Br365   1.925       .  S
C369        C370   1.414       .  A
C369        C374   1.406       .  A
C369       Br376   1.923       .  S
C370        C371   1.449       .  A
C371        C372   1.369       .  A
C371       Br378   1.979       .  S
C372        C373   1.397       .  A
C372       Br377   1.952       .  S
C373        C374   1.403       .  A
C374       Br375   1.927       .  S
C379        C380   1.399       .  A
C379        C384   1.399       .  A
C379       Br386   1.930       .  S
C380        C381   1.405       .  A
C381        C382   1.411       .  A
C381       Br388   1.924       .  S
C382        C383   1.411       .  A
C382       Br387   1.926       .  S
C383        C384   1.415       .  A
C384       Br385   1.925       .  S
C389        C390   1.414       .  A
C389        C394   1.403       .  A
C389       Br396   1.926       .  S
C390        C391   1.410       .  A
C391        C392   1.418       .  A
C391       Br398   1.925       .  S
C392        C393   1.412       .  A
C392       Br397   1.923       .  S
C393        C394   1.403       .  A
C394       Br395   1.929       .  S
C399        C400   1.423       .  A
C399        C404   1.404       .  A
C399       Br406   1.930       .  S
C400        C401   1.407       .  A
C401        C402   1.423       .  A
C401       Br408   1.918       .  S
C402        C403   1.431       .  A
C402       Br407   1.924       .  S
C403        C404   1.424       .  A
C404       Br405   1.942       .  S
C409        C410   1.423       .  A
C409        C414   1.403       .  A
C409      Br1432   1.930       .  S
C410        C411   1.401       .  A
C411        C412   1.411       .  A
C411       Br418   1.921       .  S
C412        C413   1.418       .  A
C412       Br417   1.927       .  S
C413        C414   1.412       .  A
C414       Br415   1.935       .  S
Br416      C1425   1.930       .  S
C419        C420   1.407       .  A
C419        C424   1.377       .  A
C419       Br426   1.915       .  S
C420       C1437   1.428       .  A
C421        C422   1.435       .  A
C421       C1436   1.428       .  A
C421       Br428   1.911       .  S
C422       C1439   1.421       .  A
C422       Br427   1.920       .  S
C423        C424   1.380       .  A
C423       C1438   1.421       .  A
C424       Br425   1.912       .  S
C429        C434   1.418       .  A
C429       C1446   1.412       .  A
C429       Br436   1.926       .  S
C430        C431   1.403       .  A
C430       C1445   1.412       .  A
C431        C432   1.405       .  A
C431       Br438   1.928       .  S
C432        C433   1.414       .  A
C432       Br437   1.927       .  S
C433       C1450   1.413       .  A
C434       C1449   1.413       .  A
C434       Br435   1.925       .  S
C439        C444   1.403       .  A
C439       C1456   1.428       .  A
C439       Br446   1.935       .  S
C440        C441   1.419       .  A
C440       C1455   1.428       .  A
C441        C442   1.409       .  A
C441       Br448   1.930       .  S
C442        C443   1.406       .  A
C442       Br447   1.929   1_554  S
C443       C1460   1.402       .  A
C444       C1459   1.402       .  A
C444       Br445   1.936       .  S
C449        C450   1.405       .  A
C449        C454   1.409       .  A
C449       Br456   1.921       .  S
C450        C451   1.415       .  A
C451        C452   1.415       .  A
C451       Br458   1.931       .  S
C452        C453   1.419       .  A
C452       Br457   1.930       .  S
C453        C454   1.423       .  A
C454       Br455   1.922       .  S
C459        C460   1.409       .  A
C459        C464   1.413       .  A
C459       Br466   1.929       .  S
C460        C461   1.414   1_455  A
C461        C462   1.411       .  A
C461       Br468   1.930       .  S
C462        C463   1.407   1_655  A
C462       Br467   1.927       .  S
C463        C464   1.415       .  A
C464       Br465   1.928       .  S
C469        C470   1.436       .  A
C469        C474   1.405       .  A
C469       Br476   1.936       .  S
C470        C471   1.408       .  A
C471        C472   1.421       .  A
C471      Br1494   1.920       .  S
C472        C473   1.418       .  A
C472       Br477   1.926       .  S
C473        C474   1.401       .  A
C474       Br475   1.932       .  S
Br478      C1487   1.920       .  S
C479        C480   1.420       .  A
C479        C484   1.420       .  A
C479       Br486   1.923       .  S
C480        C481   1.416       .  A
C481        C482   1.434       .  A
C481       Br488   1.920       .  S
C482        C483   1.433       .  A
C482       Br487   1.930       .  S
C483        C484   1.426       .  A
C484       Br485   1.933       .  S
C489        C494   1.405       .  A
C489       C1506   1.428       .  A
C489       Br496   1.930       .  S
C490        C491   1.421       .  A
C490       C1505   1.427       .  A
C491        C492   1.406       .  A
C491       Br498   1.930       .  S
C492        C493   1.398       .  A
C492       Br497   1.925       .  S
C493       C1510   1.400       .  A
C494       C1509   1.400       .  A
C494       Br495   1.934       .  S
C499        C500   1.419       .  A
C499        C504   1.413       .  A
C499       Br506   1.920   1_655  S
C500       C1517   1.447       .  A
C501        C502   1.371       .  A
C501       C1516   1.447   1_565  A
C501       Br508   1.980       .  S
C502       C1519   1.400       .  A
C502       Br507   1.944       .  S
C503        C504   1.404       .  A
C503       C1518   1.400       .  A
C504       Br505   1.926       .  S
C509        C511   1.578   1_455  S
C509       C1529   1.607   1_445  S
C509        C512   1.566       .  S
C510       C1530   1.523       .  S
C510        C516   1.487       .  S
C510       C1531   1.533   1_655  S
C510       C1008   1.536       .  S
C511        C519   1.436       .  A
C511        C514   1.377       .  A
C512       C1539   1.384       .  A
C512        C515   1.427       .  A
C513       C1525   1.606   1_655  S
C513        C527   1.425       .  A
C513        C516   1.367       .  A
C514       C1526   1.523       .  S
C514        C517   1.348       .  A
C515       C1526   1.533   1_455  S
C515       C1537   1.369       .  A
C516        C524   1.357       .  A
C517        N518   1.335       .  A
C517        H530   1.085       .  S
N518        C519   1.386       .  A
N518        C545   1.459       .  S
C519        H520   1.082       .  S
C521       C1531   1.369       .  A
C521        N522   1.349       .  A
C521        H531   1.079       .  S
N522        C523   1.355       .  A
N522       C1001   1.428       .  S
C523       C1528   1.384       .  A
C523        H529   1.081       .  S
C524        N525   1.330       .  A
C524        H526   1.085       .  S
N525        C527   1.381       .  A
N525        C535   1.442       .  S
C527        H528   1.082       .  S
O532       Ni538   1.898       .  S
O532        C553   1.259       .  A
O533       Ni556   1.913       .  S
O533        C542   1.271       .  A
O534       Ni538   1.878       .  S
O534       Ni556   1.897       .  S
O534       Ni550   1.908       .  S
O534        H557   0.957       .  S
C535        O552   1.281       .  A
C535        O544   1.277       .  A
O536       Ni555   1.938       .  S
O536        C542   1.273       .  A
O537       Ni555   1.939       .  S
O537        C539   1.273       .  A
Ni538       O541   1.929       .  S
Ni538       O543   1.887       .  S
C539        O549   1.272       .  A
C539        C991   1.539       .  S
O540       Ni556   1.933       .  S
O540        C546   1.283       .  A
O541        C546   1.278       .  A
C542        C958   1.505       .  S
O543        C545   1.272       .  A
O544       Ni555   1.947       .  S
C545        O551   1.281       .  A
C546        C981   1.487       .  S
H547        O548   0.962       .  S
O548       Ni556   1.923       .  S
O548       Ni550   1.933       .  S
O548       Ni555   1.925       .  S
O549       Ni550   1.947       .  S
Ni550       O554   1.947       .  S
Ni550       O552   1.922       .  S
O551       Ni556   1.985       .  S
C553        O554   1.274       .  A
C553        C968   1.486   1_655  S
C558        C560   1.524       .  S
C558        C562   1.556       .  S
C558        C561   1.568       .  S
C558        C988   1.595       .  S
C559        C563   1.513       .  S
C559        C565   1.511   1_545  S
C559        C564   1.583       .  S
C559        C978   1.561       .  S
C560        C568   1.395       .  A
C560       C1579   1.374       .  A
C561        C572   1.384       .  A
C561       C1580   1.459       .  A
C562        C576   1.400       .  A
C562       C1581   1.396       .  A
C563       C1576   1.374   1_545  A
C563        C566   1.380       .  A
C564       C1577   1.459   1_545  A
C564        C570   1.379       .  A
C565       C1578   1.396       .  A
C565        C573   1.380       .  A
C566       N1583   1.340   1_545  A
C566        H579   1.080       .  S
N567       C1582   1.340       .  A
N567        C568   1.339       .  A
N567       C1011   1.421       .  S
C568        H569   1.070       .  S
C570       N1587   1.350       .  A
C570        H580   1.071       .  S
N571       C1586   1.350       .  A
N571        C572   1.356       .  A
N571        C948   1.452       .  S
C572        H578   1.074       .  S
C573       N1590   1.344       .  A
C573        H575   1.083   1_565  S
N574       C1589   1.344       .  A
N574        C576   1.351       .  A
N574        C938   1.442       .  S
C576        H577   1.078       .  S
C581        C583   1.566       .  S
C581       C1601   1.585   1_545  S
C581        C584   1.550   1_455  S
C582       C1602   1.552       .  S
C582        C588   1.529       .  S
C582        C587   1.514       .  S
C582        C931   1.546       .  S
C583        C591   1.418       .  A
C583        C586   1.403       .  A
C584       C1611   1.387       .  A
C584       C1603   1.397   1_655  A
C585       C1597   1.585       .  S
C585        C599   1.410       .  A
C585        C588   1.384       .  A
C586       C1598   1.552       .  S
C586        C589   1.357       .  A
C587       C1600   1.397   1_455  A
C587        C593   1.362   1_455  A
C588        C596   1.371       .  A
C589        N590   1.342       .  A
C589        H602   1.072       .  S
N590        C591   1.374       .  A
N590        C617   1.453       .  S
C591        H592   1.082       .  S
C593        N594   1.351       .  A
C593        H603   1.083       .  S
N594        C595   1.360       .  A
N594        C951   1.435       .  S
C595       C1600   1.387       .  A
C595        H601   1.081       .  S
C596        N597   1.341       .  A
C596        H598   1.078       .  S
N597        C599   1.368       .  A
N597        C607   1.442       .  S
C599        H600   1.082       .  S
O604       Ni610   1.909       .  S
O604        C625   1.270       .  A
O605       Ni628   1.891       .  S
O605        C614   1.263       .  A
O606       Ni610   1.869       .  S
O606       Ni628   1.881       .  S
O606       Ni622   1.902       .  S
O606        H629   0.966       .  S
C607        O624   1.282       .  A
C607        O616   1.279       .  A
O608       Ni627   1.950       .  S
O608        C614   1.273       .  A
O609       Ni627   1.912       .  S
O609        C611   1.267       .  A
Ni610       O613   1.923       .  S
Ni610       O615   1.907       .  S
C611        O621   1.268       .  A
C611        C911   1.520       .  S
O612       Ni628   1.910       .  S
O612        C618   1.273       .  A
O613        C618   1.277       .  A
C614        C898   1.485       .  S
O615        C617   1.276       .  A
O616       Ni627   1.946       .  S
C617        O623   1.277       .  A
C618        C921   1.480       .  S
H619        O620   0.971       .  S
O620       Ni628   1.920       .  S
O620       Ni622   1.928       .  S
O620       Ni627   1.927       .  S
O621       Ni622   1.932       .  S
Ni622       O626   1.938       .  S
Ni622       O624   1.920       .  S
O623       Ni628   1.963       .  S
C625        O626   1.276       .  A
C625        C971   1.487       .  S
C630        C632   1.523       .  S
C630        C634   1.531       .  S
C630        C633   1.563       .  S
C630        C908   1.569       .  S
C631        C635   1.544       .  S
C631        C637   1.518       .  S
C631        C636   1.565       .  S
C631        C918   1.541       .  S
C632        C640   1.373       .  A
C632       C1651   1.389       .  A
C633        C644   1.383       .  A
C633       C1652   1.433       .  A
C634        C648   1.388       .  A
C634       C1653   1.393       .  A
C635       C1648   1.389   1_545  A
C635        C638   1.406       .  A
C636       C1649   1.433   1_545  A
C636        C642   1.373       .  A
C637       C1650   1.394   1_545  A
C637        C645   1.382       .  A
C638       N1655   1.350       .  A
C638        H651   1.073       .  S
N639       C1654   1.349       .  A
N639        C640   1.339       .  A
N639        C928   1.448       .  S
C640        H641   1.069       .  S
C642       N1659   1.352       .  A
C642        H652   1.066       .  S
N643       C1658   1.352       .  A
N643        C644   1.359       .  A
N643        C998   1.453       .  S
C644        H650   1.074       .  S
C645       N1662   1.345   1_545  A
C645        H647   1.083       .  S
N646       C1661   1.345       .  A
N646        C648   1.343       .  A
N646        C888   1.428       .  S
C648        H649   1.082       .  S
C653        C655   1.577       .  S
C653        C657   1.605       .  S
C653        C656   1.563       .  S
C654        C658   1.523       .  S
C654        C660   1.499       .  S
C654        C659   1.542       .  S
C654        C878   1.522       .  S
C655        C663   1.436       .  A
C655        C658   1.373       .  A
C656        C667   1.384       .  A
C656        C659   1.428       .  A
C657        C671   1.432       .  A
C657        C660   1.362       .  A
C658        C661   1.356       .  A
C659        C665   1.378       .  A
C660        C668   1.359       .  A
C661        N662   1.332       .  A
C661        H674   1.086       .  S
N662        C663   1.386       .  A
N662        C689   1.457       .  S
C663        H664   1.081       .  S
C665        N666   1.353       .  A
C665        H675   1.079       .  S
N666        C667   1.353       .  A
N666        C868   1.442       .  S
C667        H673   1.082       .  S
C668        N669   1.335       .  A
C668        H670   1.085       .  S
N669        C671   1.385       .  A
N669        C679   1.456       .  S
C671        H672   1.082       .  S
O676       Ni682   1.909       .  S
O676        C697   1.267       .  A
O677       Ni700   1.905       .  S
O677        C686   1.269       .  A
O678       Ni682   1.872       .  S
O678       Ni700   1.879       .  S
O678      Ni1710   1.901       .  S
O678        H701   0.961       .  S
C679        O696   1.277       .  A
C679        O688   1.281       .  A
O680       Ni699   1.951       .  S
O680       C1702   1.276   1_545  A
O681       Ni699   1.927       .  S
O681        C683   1.271       .  A
Ni682       O685   1.946       .  S
Ni682       O687   1.910       .  S
C683        O693   1.275       .  A
C683        C858   1.543       .  S
O684       Ni700   1.933       .  S
O684        C690   1.282       .  A
O685        C690   1.283       .  A
C686       O1696   1.276       .  A
C686        C941   1.489       .  S
O687        C689   1.275       .  A
O688       Ni699   1.974       .  S
C689        O695   1.282       .  A
C690        C848   1.511       .  S
H691        O692   0.968   1_565  S
O692      Ni1716   1.937   1_545  S
O692       Ni694   1.929       .  S
O692       Ni699   1.931       .  S
O693       Ni694   1.957       .  S
Ni694       O698   1.936       .  S
Ni694       O696   1.918       .  S
Ni694      O1694   1.901   1_545  S
O695       Ni700   1.977       .  S
C697       O1714   1.272       .  A
C697        C838   1.515       .  S
O698       C1713   1.272       .  A
Ni700      O1708   1.937       .  S
C702        C704   1.520       .  S
C702        C706   1.541       .  S
C702        C705   1.569       .  S
C702        C861   1.586       .  S
C703        C707   1.505       .  S
C703        C709   1.529       .  S
C703        C708   1.580       .  S
C703        C851   1.568       .  S
C704        C712   1.390       .  A
C704        C707   1.384       .  A
C705        C716   1.383       .  A
C705        C708   1.458       .  A
C706        C720   1.395       .  A
C706        C709   1.391       .  A
C707        C710   1.378       .  A
C708        C714   1.384       .  A
C709        C717   1.385       .  A
C710        N711   1.334       .  A
C710        H723   1.078       .  S
N711        C712   1.336       .  A
N711        C881   1.408       .  S
C712        H713   1.071       .  S
C714        N715   1.352       .  A
C714        H724   1.079       .  S
N715        C716   1.350       .  A
N715        C828   1.444       .  S
C716        H722   1.072       .  S
C717        N718   1.356       .  A
C717        H719   1.081       .  S
N718        C720   1.357       .  A
N718        C961   1.461       .  S
C720        H721   1.081       .  S
C725        C727   1.570       .  S
C725        C729   1.608       .  S
C725        C728   1.555       .  S
C726        C730   1.526       .  S
C726        C732   1.496       .  S
C726        C731   1.550       .  S
C726        C818   1.524       .  S
C727        C735   1.432       .  A
C727        C730   1.377       .  A
C728        C739   1.377       .  A
C728        C731   1.434       .  A
C729        C743   1.431       .  A
C729        C732   1.359       .  A
C730        C733   1.359       .  A
C731        C737   1.380       .  A
C732        C740   1.365       .  A
C733        N734   1.332       .  A
C733        H746   1.085       .  S
N734        C735   1.383       .  A
N734        C761   1.452       .  S
C735        H736   1.081       .  S
C737        N738   1.354       .  A
C737        H747   1.080       .  S
N738        C739   1.347       .  A
N738        C831   1.435       .  S
C739        H745   1.082       .  S
C740        N741   1.333       .  A
C740        H742   1.085       .  S
N741        C743   1.387       .  A
N741        C751   1.458       .  S
C743        H744   1.082       .  S
O748       Ni754   1.922       .  S
O748        C769   1.274       .  A
O749       Ni772   1.899       .  S
O749        C758   1.267       .  A
O750       Ni754   1.873       .  S
O750       Ni772   1.882       .  S
O750      Ni1782   1.907       .  S
O750        H773   0.966       .  S
C751        O768   1.290       .  A
C751        O760   1.275       .  A
O752       Ni771   1.926       .  S
O752       C1774   1.268   1_545  A
O753       Ni771   1.949       .  S
O753        C755   1.276       .  A
Ni754       O757   1.959       .  S
Ni754       O759   1.928       .  S
C755        O765   1.267       .  A
C755        C808   1.540       .  S
O756       Ni772   1.908       .  S
O756        C762   1.274       .  A
O757        C762   1.286       .  A
C758       O1768   1.268       .  A
C758        C891   1.474       .  S
O759        C761   1.273       .  A
O760       Ni771   1.947       .  S
C761        O767   1.282       .  A
C762        C798   1.496       .  S
H763        O764   0.966   1_565  S
O764      Ni1788   1.930   1_545  S
O764       Ni766   1.922       .  S
O764       Ni771   1.934       .  S
O765       Ni766   1.936       .  S
Ni766       O770   1.934       .  S
Ni766       O768   1.952       .  S
Ni766      O1766   1.906   1_545  S
O767       Ni772   1.974       .  S
C769       O1786   1.276       .  A
C769        C841   1.504       .  S
O770       C1785   1.276       .  A
Ni772      O1780   1.930       .  S
C774        C776   1.528       .  S
C774        C778   1.545       .  S
C774        C777   1.569       .  S
C774        C811   1.576       .  S
C775        C779   1.494       .  S
C775        C781   1.512       .  S
C775        C780   1.583       .  S
C775        C801   1.565       .  S
C776        C784   1.395       .  A
C776        C779   1.377       .  A
C777        C788   1.379       .  A
C777        C780   1.462       .  A
C778        C792   1.399       .  A
C778        C781   1.393       .  A
C779        C782   1.374       .  A
C780        C786   1.388       .  A
C781        C789   1.379       .  A
C782        N783   1.327       .  A
C782        H795   1.078       .  S
N783        C784   1.340       .  A
N783        C821   1.409       .  S
C784        H785   1.066       .  S
C786        N787   1.355       .  A
C786        H796   1.080       .  S
N787        C788   1.347       .  A
N787        C871   1.445       .  S
C788        H794   1.072       .  S
C789        N790   1.345       .  A
C789        H791   1.083       .  S
N790        C792   1.355       .  A
N790        C901   1.441       .  S
C792        H793   1.082       .  S
C797        C798   1.420       .  A
C797        C802   1.422       .  A
C797       Br804   1.924       .  S
C798        C799   1.404       .  A
C799        C800   1.413       .  A
C799       Br806   1.937       .  S
C800        C801   1.443       .  A
C800       Br805   1.938       .  S
C801        C802   1.408       .  A
C802       Br803   1.920       .  S
C807        C808   1.426       .  A
C807        C812   1.418       .  A
C807       Br814   1.934       .  S
C808        C809   1.438       .  A
C809        C810   1.433       .  A
C809       Br816   1.930       .  S
C810        C811   1.413       .  A
C810       Br815   1.919       .  S
C811        C812   1.424       .  A
C812       Br813   1.927       .  S
C817        C818   1.409       .  A
C817        C822   1.407       .  A
C817       Br824   1.921       .  S
C818        C819   1.450       .  A
C819        C820   1.370       .  A
C819       Br826   1.978       .  S
C820        C821   1.398       .  A
C820       Br825   1.952       .  S
C821        C822   1.406       .  A
C822       Br823   1.927       .  S
C827        C828   1.419       .  A
C827        C832   1.404       .  A
C827       Br834   1.925       .  S
C828        C829   1.412       .  A
C829        C830   1.405       .  A
C829       Br836   1.928       .  S
C830        C831   1.407       .  A
C830       Br835   1.927       .  S
C831        C832   1.404       .  A
C832       Br833   1.931       .  S
C837        C838   1.426       .  A
C837        C842   1.421       .  A
C837       Br844   1.936       .  S
C838       C1855   1.425       .  A
C839       C1854   1.425   1_565  A
C839        C840   1.413       .  A
C839       Br846   1.944       .  S
C840       C1857   1.417   1_565  A
C840       Br845   1.937       .  S
C841       C1856   1.416       .  A
C841        C842   1.414       .  A
C842       Br843   1.932       .  S
C847        C848   1.414       .  A
C847        C852   1.414       .  A
C847       Br854   1.937       .  S
C848        C849   1.426       .  A
C849        C850   1.425       .  A
C849       Br856   1.928       .  S
C850        C851   1.410       .  A
C850       Br855   1.924       .  S
C851        C852   1.431       .  A
C852       Br853   1.933       .  S
C857        C858   1.434       .  A
C857        C862   1.436       .  A
C857       Br864   1.928       .  S
C858        C859   1.428       .  A
C859        C860   1.419       .  A
C859       Br866   1.944       .  S
C860        C861   1.428       .  A
C860       Br865   1.923       .  S
C861        C862   1.415       .  A
C862       Br863   1.917       .  S
C867        C868   1.410       .  A
C867        C872   1.406       .  A
C867       Br874   1.936       .  S
C868        C869   1.412       .  A
C869        C870   1.407       .  A
C869       Br876   1.927       .  S
C870        C871   1.409       .  A
C870       Br875   1.929       .  S
C871        C872   1.419       .  A
C872       Br873   1.925       .  S
C877        C878   1.414       .  A
C877        C882   1.406       .  A
C877       Br884   1.923       .  S
C878        C879   1.449       .  A
C879        C880   1.368       .  A
C879       Br886   1.979       .  S
C880        C881   1.397       .  A
C880       Br885   1.952       .  S
C881        C882   1.403       .  A
C882       Br883   1.927       .  S
C887        C888   1.398       .  A
C887        C892   1.399       .  A
C887       Br894   1.930       .  S
C888        C889   1.405       .  A
C889        C890   1.411       .  A
C889       Br896   1.924       .  S
C890        C891   1.411       .  A
C890       Br895   1.926       .  S
C891        C892   1.415       .  A
C892       Br893   1.924       .  S
C897        C898   1.414       .  A
C897        C902   1.403       .  A
C897       Br904   1.925       .  S
C898        C899   1.410       .  A
C899        C900   1.418       .  A
C899       Br906   1.925       .  S
C900        C901   1.412       .  A
C900       Br905   1.923       .  S
C901        C902   1.403       .  A
C902       Br903   1.929       .  S
C907        C908   1.422       .  A
C907        C912   1.404       .  A
C907       Br914   1.930       .  S
C908        C909   1.407       .  A
C909        C910   1.423       .  A
C909       Br916   1.918       .  S
C910        C911   1.431       .  A
C910       Br915   1.924       .  S
C911        C912   1.424       .  A
C912       Br913   1.942       .  S
C917        C918   1.423       .  A
C917        C922   1.403       .  A
C917      Br1940   1.930       .  S
C918        C919   1.401       .  A
C919        C920   1.411       .  A
C919       Br926   1.921       .  S
C920        C921   1.418       .  A
C920       Br925   1.927       .  S
C921        C922   1.412       .  A
C922       Br923   1.935       .  S
Br924      C1933   1.930       .  S
C927        C928   1.407       .  A
C927        C932   1.377       .  A
C927       Br934   1.915       .  S
C928       C1945   1.428       .  A
C929       C1944   1.428       .  A
C929        C930   1.435       .  A
C929       Br936   1.911       .  S
C930       C1947   1.421       .  A
C930       Br935   1.920       .  S
C931       C1946   1.421       .  A
C931        C932   1.380       .  A
C932       Br933   1.912       .  S
C937       C1954   1.412       .  A
C937        C942   1.418       .  A
C937       Br944   1.926       .  S
C938       C1953   1.412       .  A
C938        C939   1.403       .  A
C939        C940   1.405       .  A
C939       Br946   1.928       .  S
C940        C941   1.414       .  A
C940       Br945   1.927       .  S
C941       C1958   1.413       .  A
C942       C1957   1.413       .  A
C942       Br943   1.925       .  S
C947       C1964   1.428       .  A
C947        C952   1.403       .  A
C947       Br954   1.935       .  S
C948       C1963   1.428       .  A
C948        C949   1.418       .  A
C949        C950   1.409       .  A
C949       Br956   1.930       .  S
C950        C951   1.406       .  A
C950       Br955   1.928       .  S
C951       C1968   1.403       .  A
C952       C1967   1.403       .  A
C952       Br953   1.936       .  S
C957        C958   1.405       .  A
C957        C962   1.409       .  A
C957       Br964   1.921       .  S
C958        C959   1.415       .  A
C959        C960   1.415       .  A
C959       Br966   1.931       .  S
C960        C961   1.419       .  A
C960       Br965   1.930       .  S
C961        C962   1.423       .  A
C962       Br963   1.922       .  S
C967        C968   1.409       .  A
C967        C972   1.413       .  A
C967       Br974   1.929       .  S
C968        C969   1.414   1_455  A
C969        C970   1.411       .  A
C969       Br976   1.930       .  S
C970        C971   1.407   1_655  A
C970       Br975   1.927       .  S
C971        C972   1.415       .  A
C972       Br973   1.928       .  S
C977        C978   1.435       .  A
C977        C982   1.405       .  A
C977       Br984   1.936       .  S
C978        C979   1.408       .  A
C979        C980   1.421       .  A
C979      Br2002   1.920       .  S
C980        C981   1.418       .  A
C980       Br985   1.926       .  S
C981        C982   1.401       .  A
C982       Br983   1.932       .  S
Br986      C1995   1.920       .  S
C987        C988   1.420       .  A
C987        C992   1.420       .  A
C987       Br994   1.923       .  S
C988        C989   1.416       .  A
C989        C990   1.434       .  A
C989       Br996   1.919       .  S
C990        C991   1.433       .  A
C990       Br995   1.929       .  S
C991        C992   1.426       .  A
C992       Br993   1.933       .  S
C997       C2014   1.427       .  A
C997       C1002   1.405       .  A
C997      Br1004   1.930       .  S
C998       C2013   1.427       .  A
C998        C999   1.421       .  A
C999       C1000   1.406       .  A
C999      Br1006   1.930       .  S
C1000      C1001   1.398       .  A
C1000     Br1005   1.925       .  S
C1001      C2018   1.400       .  A
C1002      C2017   1.400       .  A
C1002     Br1003   1.934       .  S
C1007      C1008   1.419       .  A
C1007      C1012   1.413       .  A
C1007     Br1014   1.920   1_655  S
C1008      C2025   1.447       .  A
C1009      C2024   1.447   1_565  A
C1009      C1010   1.371       .  A
C1009     Br1016   1.980       .  S
C1010      C2027   1.400       .  A
C1010     Br1015   1.944       .  S
C1011      C2026   1.400       .  A
C1011      C1012   1.404       .  A
C1012     Br1013   1.926       .  S
C1017      C1019   1.577   1_455  S
C1017      C1020   1.566       .  S
C1017      C1597   1.584       .  S
C1018      C1024   1.487   1_545  S
C1018      C1516   1.536       .  S
C1019      C1027   1.436       .  A
C1019      C1022   1.377       .  A
C1020      C1023   1.427       .  A
C1021      C1035   1.425       .  A
C1021      C1024   1.367       .  A
C1022      C1025   1.348       .  A
C1024      C1032   1.357       .  A
C1025      N1026   1.336       .  A
C1025      H1038   1.085       .  S
N1026      C1027   1.386       .  A
N1026      C1053   1.459       .  S
C1027      H1028   1.082       .  S
C1029      N1030   1.349       .  A
C1029      H1039   1.079       .  S
N1030      C1031   1.355       .  A
N1030      C1509   1.428       .  S
C1031      H1037   1.081       .  S
C1032      N1033   1.330       .  A
C1032      H1034   1.085       .  S
N1033      C1035   1.381       .  A
N1033      C1043   1.443       .  S
C1035      H1036   1.082       .  S
O1040     Ni1046   1.898       .  S
O1040      C1061   1.259       .  A
O1041     Ni1064   1.914       .  S
O1041      C1050   1.272       .  A
O1042     Ni1046   1.878       .  S
O1042     Ni1064   1.897       .  S
O1042     Ni1058   1.908       .  S
O1042      H1065   0.957       .  S
C1043      O1060   1.281       .  A
C1043      O1052   1.277       .  A
O1044     Ni1063   1.936       .  S
O1044      C1050   1.273       .  A
O1045     Ni1063   1.939       .  S
O1045      C1047   1.273       .  A
Ni1046     O1049   1.929       .  S
Ni1046     O1051   1.886       .  S
C1047      O1057   1.272       .  A
C1047      C1499   1.539       .  S
O1048     Ni1064   1.933       .  S
O1048      C1054   1.283       .  A
O1049      C1054   1.278       .  A
C1050      C1466   1.505       .  S
O1051      C1053   1.272       .  A
O1052     Ni1063   1.947       .  S
C1053      O1059   1.281       .  A
C1054      C1489   1.487       .  S
H1055      O1056   0.962       .  S
O1056     Ni1064   1.923       .  S
O1056     Ni1058   1.933       .  S
O1056     Ni1063   1.925       .  S
O1057     Ni1058   1.947       .  S
Ni1058     O1062   1.947       .  S
Ni1058     O1060   1.922       .  S
O1059     Ni1064   1.985       .  S
C1061      O1062   1.274       .  A
C1061      C1476   1.486   1_655  S
C1066      C1068   1.524       .  S
C1066      C1070   1.556       .  S
C1066      C1069   1.568       .  S
C1066      C1496   1.595       .  S
C1067      C1071   1.512       .  S
C1067      C1073   1.511       .  S
C1067      C1072   1.584       .  S
C1067      C1486   1.561       .  S
C1068      C1076   1.395       .  A
C1069      C1080   1.384       .  A
C1070      C1084   1.400       .  A
C1071      C1074   1.380       .  A
C1072      C1078   1.379       .  A
C1073      C1081   1.380       .  A
C1074      H1087   1.080       .  S
N1075      C1076   1.339       .  A
N1075      C1519   1.421       .  S
C1076      H1077   1.070       .  S
C1078      H1088   1.070       .  S
N1079      C1080   1.356   1_545  A
N1079      C1456   1.452       .  S
C1080      H1086   1.073       .  S
C1081      H1083   1.083       .  S
N1082      C1084   1.351       .  A
N1082      C1446   1.442       .  S
C1084      H1085   1.078       .  S
C1089      C1091   1.566       .  S
C1089      C1092   1.550   1_455  S
C1089      C1525   1.584   1_554  S
C1090      C1096   1.530   1_545  S
C1090      C1095   1.514       .  S
C1090      C1439   1.546       .  S
C1091      C1099   1.418       .  A
C1091      C1094   1.403       .  A
C1093      C1107   1.410       .  A
C1093      C1096   1.384       .  A
C1094      C1097   1.357       .  A
C1095      C1101   1.362   1_455  A
C1096      C1104   1.371       .  A
C1097      N1098   1.342       .  A
C1097      H1110   1.072       .  S
N1098      C1099   1.373       .  A
N1098      C1125   1.452       .  S
C1099      H1100   1.082   1_554  S
C1101      N1102   1.352       .  A
C1101      H1111   1.083       .  S
N1102      C1103   1.359       .  A
N1102      C1459   1.435       .  S
C1103      H1109   1.081   1_554  S
C1104      N1105   1.341       .  A
C1104      H1106   1.078       .  S
N1105      C1107   1.368       .  A
N1105      C1115   1.442       .  S
C1107      H1108   1.082   1_554  S
O1112     Ni1118   1.908       .  S
O1112      C1133   1.269       .  A
O1113     Ni1136   1.892       .  S
O1113      C1122   1.263       .  A
O1114     Ni1118   1.869       .  S
O1114     Ni1136   1.881       .  S
O1114     Ni1130   1.901       .  S
O1114      H1137   0.966       .  S
C1115      O1132   1.282       .  A
C1115      O1124   1.279       .  A
O1116     Ni1135   1.950       .  S
O1116      C1122   1.273       .  A
O1117     Ni1135   1.911       .  S
O1117      C1119   1.267       .  A
Ni1118     O1121   1.922       .  S
Ni1118     O1123   1.906       .  S
C1119      O1129   1.268       .  A
C1119      C1419   1.520       .  S
O1120     Ni1136   1.909       .  S
O1120      C1126   1.273       .  A
O1121      C1126   1.277       .  A
C1122      C1406   1.486       .  S
O1123      C1125   1.276       .  A
O1124     Ni1135   1.946       .  S
C1125      O1131   1.277       .  A
C1126      C1429   1.479       .  S
H1127      O1128   0.971       .  S
O1128     Ni1136   1.920       .  S
O1128     Ni1130   1.928       .  S
O1128     Ni1135   1.927       .  S
O1129     Ni1130   1.933       .  S
Ni1130     O1134   1.939       .  S
Ni1130     O1132   1.919       .  S
O1131     Ni1136   1.963       .  S
C1133      O1134   1.276       .  A
C1133      C1479   1.487       .  S
C1138      C1140   1.523       .  S
C1138      C1142   1.531       .  S
C1138      C1141   1.564       .  S
C1138      C1416   1.570       .  S
C1139      C1143   1.544       .  S
C1139      C1145   1.518       .  S
C1139      C1144   1.565       .  S
C1139      C1426   1.541       .  S
C1140      C1148   1.373       .  A
C1141      C1152   1.383       .  A
C1142      C1156   1.388       .  A
C1143      C1146   1.406       .  A
C1144      C1150   1.374       .  A
C1145      C1153   1.382       .  A
C1146      H1159   1.073       .  S
N1147      C1148   1.339   1_545  A
N1147      C1436   1.449       .  S
C1148      H1149   1.069       .  S
C1150      H1160   1.066       .  S
N1151      C1152   1.359   1_545  A
N1151      C1506   1.453       .  S
C1152      H1158   1.074       .  S
C1153      H1155   1.083       .  S
N1154      C1156   1.344       .  A
N1154      C1396   1.429       .  S
C1156      H1157   1.082       .  S
C1161      C1163   1.577       .  S
C1161      C1165   1.606       .  S
C1161      C1164   1.562       .  S
C1161      C1741   1.570   1_554  S
C1162      C1166   1.524       .  S
C1162      C1168   1.499       .  S
C1162      C1167   1.542       .  S
C1162      C1386   1.522       .  S
C1163      C1171   1.436       .  A
C1163      C1166   1.374       .  A
C1164      C1175   1.384       .  A
C1164      C1167   1.428       .  A
C1165      C1179   1.433       .  A
C1165      C1168   1.362       .  A
C1166      C1169   1.356       .  A
C1167      C1173   1.377       .  A
C1168      C1176   1.359       .  A
C1169      N1170   1.331       .  A
C1169      H1182   1.086       .  S
N1170      C1171   1.386       .  A
N1170      C1197   1.457       .  S
C1171      H1172   1.081       .  S
C1173      N1174   1.353       .  A
C1173      H1183   1.079       .  S
N1174      C1175   1.353       .  A
N1174      C1376   1.441       .  S
C1175      H1181   1.082   1_554  S
C1176      N1177   1.335       .  A
C1176      H1178   1.085       .  S
N1177      C1179   1.386       .  A
N1177      C1187   1.457       .  S
C1179      H1180   1.082   1_554  S
O1184     Ni1190   1.908       .  S
O1184      C1205   1.266   1_565  A
O1185     Ni1208   1.904       .  S
O1185      C1194   1.268       .  A
O1186     Ni1190   1.871       .  S
O1186     Ni1208   1.877       .  S
O1186      H1209   0.961       .  S
C1187      O1204   1.278       .  A
C1187      O1196   1.281       .  A
O1188     Ni1207   1.952       .  S
O1189     Ni1207   1.926       .  S
O1189      C1191   1.271       .  A
Ni1190     O1193   1.946       .  S
Ni1190     O1195   1.910       .  S
C1191      O1201   1.275       .  A
C1191      C1366   1.543       .  S
O1192     Ni1208   1.934       .  S
O1192      C1198   1.282       .  A
O1193      C1198   1.283       .  A
C1194      C1449   1.489       .  S
O1195      C1197   1.275       .  A
O1196     Ni1207   1.974       .  S
C1197      O1203   1.281       .  A
C1198      C1356   1.511       .  S
H1199      O1200   0.968       .  S
O1200     Ni1202   1.929       .  S
O1200     Ni1207   1.931       .  S
O1201     Ni1202   1.958       .  S
Ni1202     O1206   1.935       .  S
Ni1202     O1204   1.920       .  S
O1203     Ni1208   1.977       .  S
C1205      C1346   1.515       .  S
C1210      C1212   1.520       .  S
C1210      C1214   1.540       .  S
C1210      C1213   1.569       .  S
C1210      C1369   1.586       .  S
C1211      C1215   1.505       .  S
C1211      C1217   1.529       .  S
C1211      C1216   1.580       .  S
C1211      C1359   1.568       .  S
C1212      C1220   1.389       .  A
C1212      C1215   1.384       .  A
C1213      C1224   1.383       .  A
C1213      C1216   1.458       .  A
C1214      C1228   1.395       .  A
C1214      C1217   1.391       .  A
C1215      C1218   1.378       .  A
C1216      C1222   1.384       .  A
C1217      C1225   1.384       .  A
C1218      N1219   1.334       .  A
C1218      H1231   1.078       .  S
N1219      C1220   1.336       .  A
N1219      C1389   1.408       .  S
C1220      H1221   1.071       .  S
C1222      N1223   1.353       .  A
C1222      H1232   1.079       .  S
N1223      C1224   1.350       .  A
N1223      C1336   1.444       .  S
C1224      H1230   1.072       .  S
C1225      N1226   1.356       .  A
C1225      H1227   1.081       .  S
N1226      C1228   1.357       .  A
N1226      C1469   1.461       .  S
C1228      H1229   1.081       .  S
C1233      C1235   1.569       .  S
C1233      C1237   1.608       .  S
C1233      C1236   1.555       .  S
C1233      C1669   1.569       .  S
C1234      C1238   1.527       .  S
C1234      C1240   1.496       .  S
C1234      C1239   1.550       .  S
C1234      C1326   1.523       .  S
C1235      C1243   1.432       .  A
C1235      C1238   1.376       .  A
C1236      C1247   1.378       .  A
C1236      C1239   1.434       .  A
C1237      C1251   1.431       .  A
C1237      C1240   1.359       .  A
C1238      C1241   1.359       .  A
C1239      C1245   1.381       .  A
C1240      C1248   1.365       .  A
C1241      N1242   1.332       .  A
C1241      H1254   1.085       .  S
N1242      C1243   1.382       .  A
N1242      C1269   1.452       .  S
C1243      H1244   1.081       .  S
C1245      N1246   1.354       .  A
C1245      H1255   1.080       .  S
N1246      C1247   1.347       .  A
N1246      C1339   1.435       .  S
C1247      H1253   1.082       .  S
C1248      N1249   1.333       .  A
C1248      H1250   1.085       .  S
N1249      C1251   1.387       .  A
N1249      C1259   1.458       .  S
C1251      H1252   1.082       .  S
O1256     Ni1262   1.921       .  S
O1256      C1277   1.274   1_565  A
O1257     Ni1280   1.900       .  S
O1257      C1266   1.267       .  A
O1258     Ni1262   1.872       .  S
O1258     Ni1280   1.882       .  S
O1258      H1281   0.966       .  S
C1259      O1276   1.290       .  A
C1259      O1268   1.275       .  A
O1260     Ni1279   1.925       .  S
O1261     Ni1279   1.950       .  S
O1261      C1263   1.276       .  A
Ni1262     O1265   1.959       .  S
Ni1262     O1267   1.927       .  S
C1263      O1273   1.267       .  A
C1263      C1316   1.540       .  S
O1264     Ni1280   1.907       .  S
O1264      C1270   1.274       .  A
O1265      C1270   1.286       .  A
C1266      C1399   1.474       .  S
O1267      C1269   1.272       .  A
O1268     Ni1279   1.946       .  S
C1269      O1275   1.282       .  A
C1270      C1306   1.496       .  S
H1271      O1272   0.966       .  S
O1272     Ni1274   1.922       .  S
O1272     Ni1279   1.934       .  S
O1273     Ni1274   1.936       .  S
Ni1274     O1278   1.932       .  S
Ni1274     O1276   1.952       .  S
O1275     Ni1280   1.975       .  S
C1277      C1349   1.504       .  S
C1282      C1284   1.528       .  S
C1282      C1286   1.546       .  S
C1282      C1285   1.569       .  S
C1282      C1319   1.577       .  S
C1283      C1287   1.494       .  S
C1283      C1289   1.513       .  S
C1283      C1288   1.582       .  S
C1283      C1309   1.565       .  S
C1284      C1292   1.394       .  A
C1284      C1287   1.377       .  A
C1285      C1296   1.378       .  A
C1285      C1288   1.462       .  A
C1286      C1300   1.400       .  A
C1286      C1289   1.393       .  A
C1287      C1290   1.374       .  A
C1288      C1294   1.388       .  A
C1289      C1297   1.379       .  A
C1290      N1291   1.327       .  A
C1290      H1303   1.078       .  S
N1291      C1292   1.340       .  A
N1291      C1329   1.408       .  S
C1292      H1293   1.066       .  S
C1294      N1295   1.355       .  A
C1294      H1304   1.079       .  S
N1295      C1296   1.347       .  A
N1295      C1379   1.444       .  S
C1296      H1302   1.071       .  S
C1297      N1298   1.345       .  A
C1297      H1299   1.083       .  S
N1298      C1300   1.355       .  A
N1298      C1409   1.441       .  S
C1300      H1301   1.082       .  S
C1305      C1306   1.420       .  A
C1305      C1310   1.422       .  A
C1305     Br1312   1.924       .  S
C1306      C1307   1.405       .  A
C1307      C1308   1.413       .  A
C1307     Br1314   1.937       .  S
C1308      C1309   1.443       .  A
C1308     Br1313   1.938       .  S
C1309      C1310   1.408       .  A
C1310     Br1311   1.920       .  S
C1315      C1316   1.426       .  A
C1315      C1320   1.419       .  A
C1315     Br1322   1.934       .  S
C1316      C1317   1.438       .  A
C1317      C1318   1.434       .  A
C1317     Br1324   1.931       .  S
C1318      C1319   1.413       .  A
C1318     Br1323   1.919       .  S
C1319      C1320   1.424       .  A
C1320     Br1321   1.927       .  S
C1325      C1326   1.409       .  A
C1325      C1330   1.406       .  A
C1325     Br1332   1.921       .  S
C1326      C1327   1.451       .  A
C1327      C1328   1.369       .  A
C1327     Br1334   1.978       .  S
C1328      C1329   1.398       .  A
C1328     Br1333   1.953       .  S
C1329      C1330   1.406       .  A
C1330     Br1331   1.926       .  S
C1335      C1336   1.419       .  A
C1335      C1340   1.404       .  A
C1335     Br1342   1.925       .  S
C1336      C1337   1.412       .  A
C1337      C1338   1.405       .  A
C1337     Br1344   1.928       .  S
C1338      C1339   1.407       .  A
C1338     Br1343   1.927       .  S
C1339      C1340   1.404       .  A
C1340     Br1341   1.931       .  S
C1345      C1346   1.425       .  A
C1345      C1350   1.420       .  A
C1345     Br1352   1.936       .  S
C1347      C1348   1.413       .  A
C1347     Br1354   1.944       .  S
C1348     Br1353   1.937       .  S
C1349      C1350   1.414       .  A
C1350     Br1351   1.933       .  S
C1355      C1356   1.414       .  A
C1355      C1360   1.414       .  A
C1355     Br1362   1.937       .  S
C1356      C1357   1.426       .  A
C1357      C1358   1.425       .  A
C1357     Br1364   1.928       .  S
C1358      C1359   1.410       .  A
C1358     Br1363   1.924       .  S
C1359      C1360   1.431       .  A
C1360     Br1361   1.933       .  S
C1365      C1366   1.434       .  A
C1365      C1370   1.436       .  A
C1365     Br1372   1.928       .  S
C1366      C1367   1.428       .  A
C1367      C1368   1.419       .  A
C1367     Br1374   1.945       .  S
C1368      C1369   1.428       .  A
C1368     Br1373   1.924       .  S
C1369      C1370   1.415       .  A
C1370     Br1371   1.917       .  S
C1375      C1376   1.410       .  A
C1375      C1380   1.406       .  A
C1375     Br1382   1.936       .  S
C1376      C1377   1.412       .  A
C1377      C1378   1.407       .  A
C1377     Br1384   1.927       .  S
C1378      C1379   1.408       .  A
C1378     Br1383   1.929       .  S
C1379      C1380   1.419       .  A
C1380     Br1381   1.925       .  S
C1385      C1386   1.414       .  A
C1385      C1390   1.406       .  A
C1385     Br1392   1.923       .  S
C1386      C1387   1.449       .  A
C1387      C1388   1.368       .  A
C1387     Br1394   1.979       .  S
C1388      C1389   1.397       .  A
C1388     Br1393   1.952       .  S
C1389      C1390   1.403       .  A
C1390     Br1391   1.927       .  S
C1395      C1396   1.399       .  A
C1395      C1400   1.399       .  A
C1395     Br1402   1.930       .  S
C1396      C1397   1.405       .  A
C1397      C1398   1.411       .  A
C1397     Br1404   1.924       .  S
C1398      C1399   1.411       .  A
C1398     Br1403   1.926       .  S
C1399      C1400   1.415       .  A
C1400     Br1401   1.925       .  S
C1405      C1406   1.414       .  A
C1405      C1410   1.403       .  A
C1405     Br1412   1.925       .  S
C1406      C1407   1.410       .  A
C1407      C1408   1.418       .  A
C1407     Br1414   1.925       .  S
C1408      C1409   1.412       .  A
C1408     Br1413   1.923       .  S
C1409      C1410   1.403       .  A
C1410     Br1411   1.929       .  S
C1415      C1416   1.423       .  A
C1415      C1420   1.405       .  A
C1415     Br1422   1.930       .  S
C1416      C1417   1.407       .  A
C1417      C1418   1.423       .  A
C1417     Br1424   1.918       .  S
C1418      C1419   1.431       .  A
C1418     Br1423   1.924       .  S
C1419      C1420   1.424       .  A
C1420     Br1421   1.942       .  S
C1425      C1426   1.423       .  A
C1425      C1430   1.403       .  A
C1426      C1427   1.401       .  A
C1427      C1428   1.411       .  A
C1427     Br1434   1.921       .  S
C1428      C1429   1.418       .  A
C1428     Br1433   1.927       .  S
C1429      C1430   1.412       .  A
C1430     Br1431   1.935       .  S
C1435      C1436   1.407   1_565  A
C1435      C1440   1.377       .  A
C1435     Br1442   1.915       .  S
C1437      C1438   1.435       .  A
C1437     Br1444   1.911       .  S
C1438     Br1443   1.920       .  S
C1439      C1440   1.380   1_545  A
C1440     Br1441   1.912       .  S
C1445      C1450   1.418       .  A
C1445     Br1452   1.926       .  S
C1446      C1447   1.403       .  A
C1447      C1448   1.405       .  A
C1447     Br1454   1.928       .  S
C1448      C1449   1.414       .  A
C1448     Br1453   1.927       .  S
C1450     Br1451   1.925       .  S
C1455      C1460   1.403       .  A
C1455     Br1462   1.935       .  S
C1456      C1457   1.419   1_545  A
C1457      C1458   1.409   1_565  A
C1457     Br1464   1.930       .  S
C1458      C1459   1.406       .  A
C1458     Br1463   1.929   1_544  S
C1460     Br1461   1.936       .  S
C1465      C1466   1.405       .  A
C1465      C1470   1.409       .  A
C1465     Br1472   1.921       .  S
C1466      C1467   1.415       .  A
C1467      C1468   1.415       .  A
C1467     Br1474   1.931       .  S
C1468      C1469   1.419       .  A
C1468     Br1473   1.931       .  S
C1469      C1470   1.423       .  A
C1470     Br1471   1.922       .  S
C1475      C1476   1.409       .  A
C1475      C1480   1.413       .  A
C1475     Br1482   1.929       .  S
C1476      C1477   1.414   1_455  A
C1477      C1478   1.411       .  A
C1477     Br1484   1.930       .  S
C1478      C1479   1.407   1_655  A
C1478     Br1483   1.927       .  S
C1479      C1480   1.415       .  A
C1480     Br1481   1.928       .  S
C1485      C1486   1.436       .  A
C1485      C1490   1.405       .  A
C1485     Br1492   1.936       .  S
C1486      C1487   1.408       .  A
C1487      C1488   1.421       .  A
C1488      C1489   1.418       .  A
C1488     Br1493   1.926       .  S
C1489      C1490   1.401       .  A
C1490     Br1491   1.932       .  S
C1495      C1496   1.420       .  A
C1495      C1500   1.420       .  A
C1495     Br1502   1.923       .  S
C1496      C1497   1.416       .  A
C1497      C1498   1.434       .  A
C1497     Br1504   1.919       .  S
C1498      C1499   1.433       .  A
C1498     Br1503   1.929       .  S
C1499      C1500   1.426       .  A
C1500     Br1501   1.933       .  S
C1505      C1510   1.405       .  A
C1505     Br1512   1.930       .  S
C1506      C1507   1.421   1_545  A
C1507      C1508   1.406       .  A
C1507     Br1514   1.930       .  S
C1508      C1509   1.398   1_565  A
C1508     Br1513   1.925       .  S
C1510     Br1511   1.934       .  S
C1515      C1516   1.419       .  A
C1515      C1520   1.413       .  A
C1515     Br1522   1.920   1_655  S
C1517      C1518   1.371       .  A
C1517     Br1524   1.979       .  S
C1518     Br1523   1.944       .  S
C1519      C1520   1.404   1_565  A
C1520     Br1521   1.926       .  S
C1525      C1527   1.578   1_455  S
C1525      C1528   1.566       .  S
C1526      C1532   1.487   1_545  S
C1526      C2024   1.536       .  S
C1527      C1535   1.436       .  A
C1527      C1530   1.377       .  A
C1528      C1531   1.427       .  A
C1529      C1543   1.425       .  A
C1529      C1532   1.367       .  A
C1530      C1533   1.348       .  A
C1532      C1540   1.357       .  A
C1533      N1534   1.336       .  A
C1533      H1546   1.085       .  S
N1534      C1535   1.386       .  A
N1534      C1561   1.459       .  S
C1535      H1536   1.082       .  S
C1537      N1538   1.349       .  A
C1537      H1547   1.079       .  S
N1538      C1539   1.355       .  A
N1538      C2017   1.428       .  S
C1539      H1545   1.081       .  S
C1540      N1541   1.330       .  A
C1540      H1542   1.085       .  S
N1541      C1543   1.381       .  A
N1541      C1551   1.442       .  S
C1543      H1544   1.082       .  S
O1548     Ni1554   1.898       .  S
O1548      C1569   1.259       .  A
O1549     Ni1572   1.914       .  S
O1549      C1558   1.271       .  A
O1550     Ni1554   1.878       .  S
O1550     Ni1572   1.897       .  S
O1550     Ni1566   1.908       .  S
O1550      H1573   0.957       .  S
C1551      O1568   1.281       .  A
C1551      O1560   1.277       .  A
O1552     Ni1571   1.937       .  S
O1552      C1558   1.273       .  A
O1553     Ni1571   1.939       .  S
O1553      C1555   1.273       .  A
Ni1554     O1557   1.929       .  S
Ni1554     O1559   1.886       .  S
C1555      O1565   1.272       .  A
C1555      C2007   1.539       .  S
O1556     Ni1572   1.933       .  S
O1556      C1562   1.283       .  A
O1557      C1562   1.278       .  A
C1558      C1974   1.505       .  S
O1559      C1561   1.272       .  A
O1560     Ni1571   1.947       .  S
C1561      O1567   1.281       .  A
C1562      C1997   1.487       .  S
H1563      O1564   0.962       .  S
O1564     Ni1572   1.923       .  S
O1564     Ni1566   1.933       .  S
O1564     Ni1571   1.925       .  S
O1565     Ni1566   1.947       .  S
Ni1566     O1570   1.947       .  S
Ni1566     O1568   1.922       .  S
O1567     Ni1572   1.985       .  S
C1569      O1570   1.274       .  A
C1569      C1984   1.486   1_655  S
C1574      C1576   1.524       .  S
C1574      C1578   1.556       .  S
C1574      C1577   1.568       .  S
C1574      C2004   1.595       .  S
C1575      C1579   1.513       .  S
C1575      C1581   1.511       .  S
C1575      C1580   1.583       .  S
C1575      C1994   1.561       .  S
C1576      C1584   1.395       .  A
C1577      C1588   1.384       .  A
C1578      C1592   1.400       .  A
C1579      C1582   1.380       .  A
C1580      C1586   1.379       .  A
C1581      C1589   1.380       .  A
C1582      H1595   1.080       .  S
N1583      C1584   1.339       .  A
N1583      C2027   1.421       .  S
C1584      H1585   1.071       .  S
C1586      H1596   1.071       .  S
N1587      C1588   1.356   1_545  A
N1587      C1964   1.452       .  S
C1588      H1594   1.074       .  S
C1589      H1591   1.083       .  S
N1590      C1592   1.351       .  A
N1590      C1954   1.442       .  S
C1592      H1593   1.078       .  S
C1597      C1599   1.566       .  S
C1597      C1600   1.550   1_455  S
C1598      C1604   1.529   1_545  S
C1598      C1603   1.514       .  S
C1598      C1947   1.546       .  S
C1599      C1607   1.418       .  A
C1599      C1602   1.403       .  A
C1601      C1615   1.410       .  A
C1601      C1604   1.384       .  A
C1602      C1605   1.357       .  A
C1603      C1609   1.362   1_455  A
C1604      C1612   1.371       .  A
C1605      N1606   1.342       .  A
C1605      H1618   1.072       .  S
N1606      C1607   1.374       .  A
N1606      C1633   1.452       .  S
C1607      H1608   1.082       .  S
C1609      N1610   1.351       .  A
C1609      H1619   1.083       .  S
N1610      C1611   1.360       .  A
N1610      C1967   1.435       .  S
C1611      H1617   1.081       .  S
C1612      N1613   1.341       .  A
C1612      H1614   1.078       .  S
N1613      C1615   1.368       .  A
N1613      C1623   1.442       .  S
C1615      H1616   1.082       .  S
O1620     Ni1626   1.909       .  S
O1620      C1641   1.270       .  A
O1621     Ni1644   1.891       .  S
O1621      C1630   1.263       .  A
O1622     Ni1626   1.869       .  S
O1622     Ni1644   1.881       .  S
O1622     Ni1638   1.902       .  S
O1622      H1645   0.966       .  S
C1623      O1640   1.282       .  A
C1623      O1632   1.279       .  A
O1624     Ni1643   1.949       .  S
O1624      C1630   1.273       .  A
O1625     Ni1643   1.912       .  S
O1625      C1627   1.267       .  A
Ni1626     O1629   1.922       .  S
Ni1626     O1631   1.907       .  S
C1627      O1637   1.268       .  A
C1627      C1927   1.520       .  S
O1628     Ni1644   1.910       .  S
O1628      C1634   1.274       .  A
O1629      C1634   1.277       .  A
C1630      C1914   1.485       .  S
O1631      C1633   1.276       .  A
O1632     Ni1643   1.946       .  S
C1633      O1639   1.277       .  A
C1634      C1937   1.480       .  S
H1635      O1636   0.971       .  S
O1636     Ni1644   1.920       .  S
O1636     Ni1638   1.928       .  S
O1636     Ni1643   1.927       .  S
O1637     Ni1638   1.933       .  S
Ni1638     O1642   1.938       .  S
Ni1638     O1640   1.920       .  S
O1639     Ni1644   1.962       .  S
C1641      O1642   1.276       .  A
C1641      C1987   1.487       .  S
C1646      C1648   1.523       .  S
C1646      C1650   1.531       .  S
C1646      C1649   1.564       .  S
C1646      C1924   1.569       .  S
C1647      C1651   1.544       .  S
C1647      C1653   1.518       .  S
C1647      C1652   1.565       .  S
C1647      C1934   1.541       .  S
C1648      C1656   1.373       .  A
C1649      C1660   1.383       .  A
C1650      C1664   1.388       .  A
C1651      C1654   1.406       .  A
C1652      C1658   1.374       .  A
C1653      C1661   1.382       .  A
C1654      H1667   1.073       .  S
N1655      C1656   1.339   1_545  A
N1655      C1944   1.449       .  S
C1656      H1657   1.069       .  S
C1658      H1668   1.066       .  S
N1659      C1660   1.359   1_545  A
N1659      C2014   1.453       .  S
C1660      H1666   1.074       .  S
C1661      H1663   1.083       .  S
N1662      C1664   1.344       .  A
N1662      C1904   1.429       .  S
C1664      H1665   1.082       .  S
C1669      C1671   1.577       .  S
C1669      C1673   1.605       .  S
C1669      C1672   1.563       .  S
C1670      C1674   1.524       .  S
C1670      C1676   1.499       .  S
C1670      C1675   1.542       .  S
C1670      C1894   1.521       .  S
C1671      C1679   1.436       .  A
C1671      C1674   1.373       .  A
C1672      C1683   1.384       .  A
C1672      C1675   1.428       .  A
C1673      C1687   1.432       .  A
C1673      C1676   1.362       .  A
C1674      C1677   1.356       .  A
C1675      C1681   1.377       .  A
C1676      C1684   1.359       .  A
C1677      N1678   1.332       .  A
C1677      H1690   1.086       .  S
N1678      C1679   1.386       .  A
N1678      C1705   1.457       .  S
C1679      H1680   1.081       .  S
C1681      N1682   1.353       .  A
C1681      H1691   1.079       .  S
N1682      C1683   1.353       .  A
N1682      C1884   1.442       .  S
C1683      H1689   1.082       .  S
C1684      N1685   1.335       .  A
C1684      H1686   1.085       .  S
N1685      C1687   1.385       .  A
N1685      C1695   1.457       .  S
C1687      H1688   1.082       .  S
O1692     Ni1698   1.909       .  S
O1692      C1713   1.266   1_565  A
O1693     Ni1716   1.904       .  S
O1693      C1702   1.268       .  A
O1694     Ni1698   1.871       .  S
O1694     Ni1716   1.878       .  S
O1694      H1717   0.961       .  S
C1695      O1712   1.277       .  A
C1695      O1704   1.281       .  A
O1696     Ni1715   1.951       .  S
O1697     Ni1715   1.927       .  S
O1697      C1699   1.271       .  A
Ni1698     O1701   1.946       .  S
Ni1698     O1703   1.909       .  S
C1699      O1709   1.275       .  A
C1699      C1874   1.543       .  S
O1700     Ni1716   1.933       .  S
O1700      C1706   1.282       .  A
O1701      C1706   1.283       .  A
C1702      C1957   1.489       .  S
O1703      C1705   1.275       .  A
O1704     Ni1715   1.974       .  S
C1705      O1711   1.282       .  A
C1706      C1864   1.511       .  S
H1707      O1708   0.968       .  S
O1708     Ni1710   1.929       .  S
O1708     Ni1715   1.932       .  S
O1709     Ni1710   1.958       .  S
Ni1710     O1714   1.935       .  S
Ni1710     O1712   1.918       .  S
O1711     Ni1716   1.977       .  S
C1713      C1854   1.515       .  S
C1718      C1720   1.520       .  S
C1718      C1722   1.540       .  S
C1718      C1721   1.569       .  S
C1718      C1877   1.586       .  S
C1719      C1723   1.505       .  S
C1719      C1725   1.529       .  S
C1719      C1724   1.581       .  S
C1719      C1867   1.568       .  S
C1720      C1728   1.390       .  A
C1720      C1723   1.384       .  A
C1721      C1732   1.383       .  A
C1721      C1724   1.458       .  A
C1722      C1736   1.395       .  A
C1722      C1725   1.390       .  A
C1723      C1726   1.378       .  A
C1724      C1730   1.384       .  A
C1725      C1733   1.385       .  A
C1726      N1727   1.334       .  A
C1726      H1739   1.078       .  S
N1727      C1728   1.336       .  A
N1727      C1897   1.408       .  S
C1728      H1729   1.071       .  S
C1730      N1731   1.353       .  A
C1730      H1740   1.079       .  S
N1731      C1732   1.350       .  A
N1731      C1844   1.444       .  S
C1732      H1738   1.072       .  S
C1733      N1734   1.356       .  A
C1733      H1735   1.081       .  S
N1734      C1736   1.357       .  A
N1734      C1977   1.461       .  S
C1736      H1737   1.081       .  S
C1741      C1743   1.570       .  S
C1741      C1745   1.608       .  S
C1741      C1744   1.555       .  S
C1742      C1746   1.526       .  S
C1742      C1748   1.496       .  S
C1742      C1747   1.550       .  S
C1742      C1834   1.524       .  S
C1743      C1751   1.432       .  A
C1743      C1746   1.376       .  A
C1744      C1755   1.377       .  A
C1744      C1747   1.434       .  A
C1745      C1759   1.431       .  A
C1745      C1748   1.359       .  A
C1746      C1749   1.359       .  A
C1747      C1753   1.380       .  A
C1748      C1756   1.364       .  A
C1749      N1750   1.332       .  A
C1749      H1762   1.085       .  S
N1750      C1751   1.383       .  A
N1750      C1777   1.452       .  S
C1751      H1752   1.081       .  S
C1753      N1754   1.354       .  A
C1753      H1763   1.080       .  S
N1754      C1755   1.347       .  A
N1754      C1847   1.435       .  S
C1755      H1761   1.082       .  S
C1756      N1757   1.333       .  A
C1756      H1758   1.085       .  S
N1757      C1759   1.387       .  A
N1757      C1767   1.458       .  S
C1759      H1760   1.082       .  S
O1764     Ni1770   1.922       .  S
O1764      C1785   1.274   1_565  A
O1765     Ni1788   1.900       .  S
O1765      C1774   1.267       .  A
O1766     Ni1770   1.872       .  S
O1766     Ni1788   1.882       .  S
O1766      H1789   0.966       .  S
C1767      O1784   1.290       .  A
C1767      O1776   1.275       .  A
O1768     Ni1787   1.926       .  S
O1769     Ni1787   1.949       .  S
O1769      C1771   1.276       .  A
Ni1770     O1773   1.959       .  S
Ni1770     O1775   1.928       .  S
C1771      O1781   1.266       .  A
C1771      C1824   1.540       .  S
O1772     Ni1788   1.907       .  S
O1772      C1778   1.274       .  A
O1773      C1778   1.286       .  A
C1774      C1907   1.475       .  S
O1775      C1777   1.273       .  A
O1776     Ni1787   1.947       .  S
C1777      O1783   1.282       .  A
C1778      C1814   1.496       .  S
H1779      O1780   0.966       .  S
O1780     Ni1782   1.922       .  S
O1780     Ni1787   1.934       .  S
O1781     Ni1782   1.935       .  S
Ni1782     O1786   1.933       .  S
Ni1782     O1784   1.951       .  S
O1783     Ni1788   1.974       .  S
C1785      C1857   1.505       .  S
C1790      C1792   1.528       .  S
C1790      C1794   1.545       .  S
C1790      C1793   1.569       .  S
C1790      C1827   1.576       .  S
C1791      C1795   1.494       .  S
C1791      C1797   1.513       .  S
C1791      C1796   1.582       .  S
C1791      C1817   1.565       .  S
C1792      C1800   1.394       .  A
C1792      C1795   1.377       .  A
C1793      C1804   1.379       .  A
C1793      C1796   1.462       .  A
C1794      C1808   1.399       .  A
C1794      C1797   1.393       .  A
C1795      C1798   1.374       .  A
C1796      C1802   1.387       .  A
C1797      C1805   1.379       .  A
C1798      N1799   1.327       .  A
C1798      H1811   1.078       .  S
N1799      C1800   1.340       .  A
N1799      C1837   1.408       .  S
C1800      H1801   1.066       .  S
C1802      N1803   1.355       .  A
C1802      H1812   1.079       .  S
N1803      C1804   1.347       .  A
N1803      C1887   1.444       .  S
C1804      H1810   1.071       .  S
C1805      N1806   1.345       .  A
C1805      H1807   1.083       .  S
N1806      C1808   1.355       .  A
N1806      C1917   1.441       .  S
C1808      H1809   1.082       .  S
C1813      C1814   1.420       .  A
C1813      C1818   1.422       .  A
C1813     Br1820   1.924       .  S
C1814      C1815   1.405       .  A
C1815      C1816   1.413       .  A
C1815     Br1822   1.937       .  S
C1816      C1817   1.443       .  A
C1816     Br1821   1.938       .  S
C1817      C1818   1.408       .  A
C1818     Br1819   1.920       .  S
C1823      C1824   1.426       .  A
C1823      C1828   1.419       .  A
C1823     Br1830   1.934       .  S
C1824      C1825   1.439       .  A
C1825      C1826   1.433       .  A
C1825     Br1832   1.931       .  S
C1826      C1827   1.413       .  A
C1826     Br1831   1.919       .  S
C1827      C1828   1.424       .  A
C1828     Br1829   1.927       .  S
C1833      C1834   1.409       .  A
C1833      C1838   1.407       .  A
C1833     Br1840   1.921       .  S
C1834      C1835   1.451       .  A
C1835      C1836   1.369       .  A
C1835     Br1842   1.978       .  S
C1836      C1837   1.398       .  A
C1836     Br1841   1.953       .  S
C1837      C1838   1.406       .  A
C1838     Br1839   1.927       .  S
C1843      C1844   1.419       .  A
C1843      C1848   1.404       .  A
C1843     Br1850   1.925       .  S
C1844      C1845   1.412       .  A
C1845      C1846   1.405       .  A
C1845     Br1852   1.928       .  S
C1846      C1847   1.407       .  A
C1846     Br1851   1.927       .  S
C1847      C1848   1.404       .  A
C1848     Br1849   1.931       .  S
C1853      C1854   1.426       .  A
C1853      C1858   1.421       .  A
C1853     Br1860   1.936       .  S
C1855      C1856   1.412       .  A
C1855     Br1862   1.944       .  S
C1856     Br1861   1.936       .  S
C1857      C1858   1.414       .  A
C1858     Br1859   1.932       .  S
C1863      C1864   1.414       .  A
C1863      C1868   1.414       .  A
C1863     Br1870   1.937       .  S
C1864      C1865   1.426       .  A
C1865      C1866   1.425       .  A
C1865     Br1872   1.928       .  S
C1866      C1867   1.409       .  A
C1866     Br1871   1.924       .  S
C1867      C1868   1.431       .  A
C1868     Br1869   1.933       .  S
C1873      C1874   1.434       .  A
C1873      C1878   1.436       .  A
C1873     Br1880   1.928       .  S
C1874      C1875   1.428       .  A
C1875      C1876   1.419       .  A
C1875     Br1882   1.945       .  S
C1876      C1877   1.428       .  A
C1876     Br1881   1.924       .  S
C1877      C1878   1.415       .  A
C1878     Br1879   1.917       .  S
C1883      C1884   1.410       .  A
C1883      C1888   1.406       .  A
C1883     Br1890   1.936       .  S
C1884      C1885   1.412       .  A
C1885      C1886   1.407       .  A
C1885     Br1892   1.927       .  S
C1886      C1887   1.409       .  A
C1886     Br1891   1.929       .  S
C1887      C1888   1.419       .  A
C1888     Br1889   1.925       .  S
C1893      C1894   1.414       .  A
C1893      C1898   1.406       .  A
C1893     Br1900   1.923       .  S
C1894      C1895   1.449       .  A
C1895      C1896   1.368       .  A
C1895     Br1902   1.979       .  S
C1896      C1897   1.397       .  A
C1896     Br1901   1.952       .  S
C1897      C1898   1.403       .  A
C1898     Br1899   1.927       .  S
C1903      C1904   1.399       .  A
C1903      C1908   1.399       .  A
C1903     Br1910   1.930       .  S
C1904      C1905   1.405       .  A
C1905      C1906   1.411       .  A
C1905     Br1912   1.924       .  S
C1906      C1907   1.411       .  A
C1906     Br1911   1.926       .  S
C1907      C1908   1.415       .  A
C1908     Br1909   1.924       .  S
C1913      C1914   1.414       .  A
C1913      C1918   1.403       .  A
C1913     Br1920   1.925       .  S
C1914      C1915   1.410       .  A
C1915      C1916   1.418       .  A
C1915     Br1922   1.925       .  S
C1916      C1917   1.412       .  A
C1916     Br1921   1.923       .  S
C1917      C1918   1.403       .  A
C1918     Br1919   1.929       .  S
C1923      C1924   1.422       .  A
C1923      C1928   1.404       .  A
C1923     Br1930   1.930       .  S
C1924      C1925   1.407       .  A
C1925      C1926   1.423       .  A
C1925     Br1932   1.918       .  S
C1926      C1927   1.431       .  A
C1926     Br1931   1.924       .  S
C1927      C1928   1.424       .  A
C1928     Br1929   1.942       .  S
C1933      C1934   1.423       .  A
C1933      C1938   1.403       .  A
C1934      C1935   1.401       .  A
C1935      C1936   1.411       .  A
C1935     Br1942   1.921       .  S
C1936      C1937   1.418       .  A
C1936     Br1941   1.927       .  S
C1937      C1938   1.412       .  A
C1938     Br1939   1.935       .  S
C1943      C1944   1.407   1_565  A
C1943      C1948   1.377       .  A
C1943     Br1950   1.915       .  S
C1945      C1946   1.434       .  A
C1945     Br1952   1.911       .  S
C1946     Br1951   1.920       .  S
C1947      C1948   1.380   1_545  A
C1948     Br1949   1.912       .  S
C1953      C1958   1.418       .  A
C1953     Br1960   1.926       .  S
C1954      C1955   1.403       .  A
C1955      C1956   1.405       .  A
C1955     Br1962   1.928       .  S
C1956      C1957   1.414       .  A
C1956     Br1961   1.927       .  S
C1958     Br1959   1.925       .  S
C1963      C1968   1.403       .  A
C1963     Br1970   1.935       .  S
C1964      C1965   1.418   1_545  A
C1965      C1966   1.409   1_565  A
C1965     Br1972   1.930       .  S
C1966      C1967   1.406       .  A
C1966     Br1971   1.928   1_545  S
C1968     Br1969   1.936       .  S
C1973      C1974   1.405       .  A
C1973      C1978   1.409       .  A
C1973     Br1980   1.921       .  S
C1974      C1975   1.415       .  A
C1975      C1976   1.415       .  A
C1975     Br1982   1.931       .  S
C1976      C1977   1.419       .  A
C1976     Br1981   1.931       .  S
C1977      C1978   1.423       .  A
C1978     Br1979   1.922       .  S
C1983      C1984   1.409       .  A
C1983      C1988   1.413       .  A
C1983     Br1990   1.929       .  S
C1984      C1985   1.414   1_455  A
C1985      C1986   1.411       .  A
C1985     Br1992   1.930       .  S
C1986      C1987   1.407   1_655  A
C1986     Br1991   1.927       .  S
C1987      C1988   1.415       .  A
C1988     Br1989   1.928       .  S
C1993      C1994   1.435       .  A
C1993      C1998   1.405       .  A
C1993     Br2000   1.936       .  S
C1994      C1995   1.408       .  A
C1995      C1996   1.421       .  A
C1996      C1997   1.418       .  A
C1996     Br2001   1.926       .  S
C1997      C1998   1.401       .  A
C1998     Br1999   1.932       .  S
C2003      C2004   1.420       .  A
C2003      C2008   1.420       .  A
C2003     Br2010   1.923       .  S
C2004      C2005   1.416       .  A
C2005      C2006   1.434       .  A
C2005     Br2012   1.919       .  S
C2006      C2007   1.433       .  A
C2006     Br2011   1.929       .  S
C2007      C2008   1.426       .  A
C2008     Br2009   1.933       .  S
C2013      C2018   1.405       .  A
C2013     Br2020   1.930       .  S
C2014      C2015   1.421   1_545  A
C2015      C2016   1.406       .  A
C2015     Br2022   1.930       .  S
C2016      C2017   1.398   1_565  A
C2016     Br2021   1.925       .  S
C2018     Br2019   1.934       .  S
C2023      C2024   1.419       .  A
C2023      C2028   1.413       .  A
C2023     Br2030   1.920   1_655  S
C2025      C2026   1.371       .  A
C2025     Br2032   1.980       .  S
C2026     Br2031   1.944       .  S
C2027      C2028   1.404   1_565  A
C2028     Br2029   1.926       .  S
