geometry optimzed in LAMMPS
_audit_creation_date              2020-12-01 
_audit_creation_method            'lammps2cif' 
_symmetry_space_group_name_H-M    'P1' 
_symmetry_Int_Tables_number       1 
_symmetry_cell_setting            triclinic 
loop_ 
_symmetry_equiv_pos_as_xyz 
  x,y,z 
_cell_length_a                    52.24930288 
_cell_length_b                    37.48477536990268 
_cell_length_c                    32.78426866857685 
_cell_angle_alpha                 89.37257799481635 
_cell_angle_beta                  91.12359840582019 
_cell_angle_gamma                 90.32824202826 
loop_ 
_atom_site_label 
_atom_site_type_symbol 
_atom_site_fract_x 
_atom_site_fract_y 
_atom_site_fract_z 
_atom_site_charge 
O1          O  0.55095222  0.48058022  0.06492995    -0.73200
O2          O  0.62967243  0.49323332  0.07357907    -0.74200
O3          O  0.59304678  0.45090014  0.11479773    -0.62800
O4          O  0.59105144  0.52102836  0.02245971    -0.71200
O5          O  0.59015068  0.56700259  0.06414782    -0.70700
O6          O  0.58875959  0.49533131  0.15828474    -0.62000
O7          O  0.62422034  0.53616523  0.11865373    -0.74500
O8          O  0.54769026  0.52670401  0.10589392    -0.73300
Cu9        Cu  0.59082007  0.48487318  0.06742098     1.04600
Cu10       Cu  0.58673018  0.53278271  0.11315593     1.04300
C11         C  0.53680741  0.50218717  0.08459263     0.93000
C12         C  0.63892614  0.51697811  0.09776275     0.92200
C13         C  0.59462626  0.46284878  0.15096108     0.84300
C14         C  0.59645632  0.55363084  0.02995742     0.90600
O15         O  0.49496823  0.52185083  0.10428305    -0.73200
O16         O  0.41784842  0.52349322  0.10053161    -0.74200
O17         O  0.45237063  0.48683633  0.14853420    -0.62800
O18         O  0.45554136  0.55762418  0.05442981    -0.71200
O19         O  0.45457810  0.51189647  0.01203215    -0.70700
O20         O  0.45194158  0.44129454  0.10597425    -0.62000
O21         O  0.41642576  0.47844993  0.05706304    -0.74500
O22         O  0.49544498  0.47668196  0.06152775    -0.73300
Cu23       Cu  0.45582540  0.52385617  0.10342910     1.04600
Cu24       Cu  0.45525235  0.47544559  0.05765440     1.04300
C25         C  0.50775406  0.49980269  0.08326503     0.93000
C26         C  0.40508006  0.50131959  0.07898048     0.92200
C27         C  0.44633842  0.45437323  0.14051134     0.84300
C28         C  0.45198870  0.54525706  0.01850672     0.90600
C29         C  0.41650260  0.58522961  0.92405867     0.86300
C30         C  0.40981144  0.61946783  0.94678405    -0.54000
C31         C  0.42810360  0.63151595  0.97411112     0.09200
C32         C  0.45185849  0.60681087  0.97603665     0.20100
C33         C  0.44251908  0.59303908  0.90484972    -0.54700
C34         C  0.46054735  0.60535542  0.93141406     0.09300
C35         C  0.42376186  0.55746026  0.95742629    -0.54200
C36         C  0.44217420  0.56874928  0.98478297     0.09900
H37         H  0.39271902  0.63458143  0.93889509     0.14400
H38         H  0.46698996  0.61412847  0.99835559     0.00100
H39         H  0.44676834  0.58873990  0.87300677     0.14700
H40         H  0.41585457  0.53064850  0.95852961     0.14500
C41         C  0.38847803  0.43267331  0.20751327     0.86300
C42         C  0.37867426  0.40354526  0.17782408    -0.54000
C43         C  0.39758966  0.38345610  0.16117161     0.09200
C44         C  0.42482877  0.39484427  0.17556242     0.20100
C45         C  0.40425430  0.41046275  0.23835959    -0.54700
C46         C  0.42334120  0.39037014  0.22274560     0.09300
C47         C  0.40801183  0.45442732  0.18339944    -0.54200
C48         C  0.42750928  0.43549974  0.16742257     0.09900
H49         H  0.35912067  0.39410090  0.17639363     0.14400
H50         H  0.44024614  0.38009736  0.16063919     0.00100
H51         H  0.39936160  0.41065012  0.27052638     0.14700
H52         H  0.40620465  0.48308011  0.17893672     0.14500
N53         N  0.29168738  0.51790881  0.62358218    -0.27500
N54         N  0.27011495  0.51684140  0.64386751    -0.35400
C55         C  0.27554122  0.51205269  0.68373649     0.00800
C56         C  0.30185921  0.51070638  0.68890035     0.06800
C57         C  0.31148816  0.51420323  0.65005006    -0.06300
H58         H  0.26166098  0.51428838  0.70762590     0.07500
H59         H  0.33135955  0.51780763  0.64219240     0.08700
Cu60       Cu  0.23569343  0.53408704  0.61896494     0.44200
Cu61       Cu  0.29284937  0.53144337  0.56245669     0.42000
Cu62       Cu  0.23565455  0.57392591  0.51811080     0.43900
N63         N  0.20600809  0.56445002  0.59491964    -0.34900
N64         N  0.20606350  0.58048126  0.55880158    -0.29200
C65         C  0.18350130  0.59724747  0.55274217    -0.05300
C66         C  0.16868043  0.59128015  0.58675260     0.07000
C67         C  0.18355915  0.57035753  0.61267139     0.00700
H68         H  0.17762901  0.61036779  0.52455950     0.08400
H69         H  0.17801572  0.55883549  0.64161528     0.07500
N70         N  0.26626291  0.55588196  0.48445940    -0.36400
N71         N  0.28696788  0.54095266  0.50086443    -0.28500
C72         C  0.30178158  0.52895384  0.47102609    -0.03800
C73         C  0.28981333  0.53633798  0.43402702     0.04800
C74         C  0.26740752  0.55358494  0.44359186     0.02900
H75         H  0.31929218  0.51412434  0.47598627     0.08000
H76         H  0.25233794  0.56179148  0.42268749     0.06900
C77         C  0.40318556  0.94576167  0.90450603     0.86300
C78         C  0.41546412  0.96804218  0.93902724    -0.54000
C79         C  0.43312844  0.95018127  0.96292431     0.09200
C80         C  0.43729129  0.91136143  0.94935274     0.20100
C81         C  0.42716107  0.93431680  0.88131393    -0.54700
C82         C  0.44445787  0.91574999  0.90443025     0.09300
C83         C  0.39289567  0.91192872  0.92560247    -0.54200
C84         C  0.41065894  0.89290415  0.94778480     0.09900
H85         H  0.41165751  0.99619777  0.94303468     0.14400
H86         H  0.45202002  0.89679114  0.96775645     0.00100
H87         H  0.43119679  0.94232471  0.85018560     0.14700
H88         H  0.37311565  0.90342386  0.92203924     0.14500
C89         C  0.40306721  0.08776500  0.19353009     0.86300
C90         C  0.41952291  0.06118400  0.17014179    -0.54000
C91         C  0.43922396  0.07619043  0.14888549     0.09200
C92         C  0.43947299  0.11734125  0.15089797     0.20100
C93         C  0.42184520  0.11029772  0.21858282    -0.54700
C94         C  0.44080115  0.12535251  0.19678761     0.09300
C95         C  0.39352550  0.11229171  0.15837549    -0.54200
C96         C  0.41218216  0.12953086  0.13632793     0.09900
H97         H  0.41451731  0.03316716  0.16733278     0.14400
H98         H  0.45590504  0.12901296  0.13506145     0.00100
H99         H  0.42103002  0.11256166  0.25156326     0.14700
H100        H  0.37343417  0.11583316  0.15264674     0.14500
N101        N  0.28031128  0.03047184  0.49655087    -0.27500
N102        N  0.25983777  0.03939329  0.47453018    -0.35400
C103        C  0.26596516  0.04002600  0.43488054     0.00800
C104        C  0.29152163  0.03116218  0.43195371     0.06800
C105        C  0.29997438  0.02504976  0.47161133    -0.06300
H106        H  0.25320168  0.04829449  0.41023317     0.07500
H107        H  0.31934536  0.01921826  0.48177466     0.08700
Cu108      Cu  0.22577231  0.05515056  0.50008425     0.44200
Cu109      Cu  0.28182845  0.03234915  0.55940328     0.42000
Cu110      Cu  0.23157300  0.08532732  0.60409751     0.43900
N111        N  0.19564982  0.07627493  0.53215771    -0.34900
N112        N  0.19803898  0.08987112  0.56909880    -0.29200
C113        C  0.17492768  0.10123790  0.58102490    -0.05300
C114        C  0.15720593  0.09390409  0.55032490     0.07000
C115        C  0.17097572  0.07788118  0.52000859     0.00700
H116        H  0.17095204  0.11141972  0.61091973     0.08400
H117        H  0.16347424  0.06723679  0.49161150     0.07500
N118        N  0.26332940  0.06579953  0.63641095    -0.36400
N119        N  0.28083802  0.04511610  0.62040346    -0.28500
C120        C  0.29750676  0.03469500  0.64984247    -0.03800
C121        C  0.29016638  0.04949339  0.68612672     0.04800
C122        C  0.26857669  0.06922610  0.67650569     0.02900
H123        H  0.31363505  0.01731685  0.64525714     0.08000
H124        H  0.25739841  0.08488656  0.69700566     0.06900
O125        O  0.55017577  0.01970373  0.03600613    -0.73200
O126        O  0.62702021  0.01463619  0.03358071    -0.74200
O127        O  0.58844700  0.97494083  0.99640821    -0.62800
O128        O  0.59359145  0.05754620  0.07567183    -0.71200
O129        O  0.58947206  0.01655867  0.12437148    -0.70700
O130        O  0.59012748  0.93497761  0.04677655    -0.62000
O131        O  0.62736600  0.97740684  0.08673054    -0.74500
O132        O  0.54875705  0.97706285  0.08314457    -0.73300
Cu133      Cu  0.58914764  0.01798518  0.03350338     1.04600
Cu134      Cu  0.58834496  0.97515383  0.08695267     1.04300
C135        C  0.53707220  0.99946644  0.05948051     0.93000
C136        C  0.63929346  0.99637861  0.06036172     0.92200
C137        C  0.59373765  0.94329864  0.00957866     0.84300
C138        C  0.59603686  0.04803991  0.11314649     0.90600
O139        O  0.45338472  0.00176508  0.99050308    -0.73200
O140        O  0.46032022  0.06760346  0.08567172    -0.74200
O141        O  0.49758500  0.02774991  0.03809760    -0.62800
O142        O  0.42079702  0.04025070  0.03833313    -0.71200
O143        O  0.41721131  0.99344404  0.08009831    -0.70700
O144        O  0.49448998  0.98142595  0.08019744    -0.62000
O145        O  0.45639571  0.02077908  0.12714690    -0.74500
O146        O  0.45066853  0.95435910  0.03125700    -0.73300
Cu147      Cu  0.45876978  0.03570854  0.03663780     1.04600
Cu148      Cu  0.45519739  0.98570556  0.08107678     1.04300
C149        C  0.44734604  0.96900675  0.99616524     0.93000
C150        C  0.45413931  0.05433299  0.12016676     0.92200
C151        C  0.50838551  0.00284780  0.05923688     0.84300
C152        C  0.40718500  0.01948116  0.06021533     0.90600
C153        C  0.64538146  0.91292644  0.93806773     0.86300
C154        C  0.65713514  0.88612136  0.96908698    -0.54000
C155        C  0.63970713  0.86746587  0.99166764     0.09200
C156        C  0.61165352  0.87878047  0.98162796     0.20100
C157        C  0.62701750  0.88911649  0.91328411    -0.54700
C158        C  0.60933421  0.87043500  0.93538257     0.09300
C159        C  0.62842947  0.93703399  0.96216388    -0.54200
C160        C  0.61016520  0.92032449  0.98405849     0.09900
H161        H  0.67645061  0.87614526  0.96646964     0.14400
H162        H  0.59756072  0.86601482  0.00173940     0.00100
H163        H  0.62862411  0.88745872  0.88068593     0.14700
H164        H  0.63089147  0.96587247  0.96177981     0.14500
C165        C  0.63592554  0.07533987  0.20594021     0.86300
C166        C  0.65308623  0.10153881  0.18183555    -0.54000
C167        C  0.64036869  0.12252674  0.15368282     0.09200
C168        C  0.61186457  0.11136952  0.14849732     0.20100
C169        C  0.61423590  0.09958998  0.22105723    -0.54700
C170        C  0.60149355  0.11839420  0.19110002     0.09300
C171        C  0.62348524  0.05215951  0.17386490    -0.54200
C172        C  0.61027427  0.06998616  0.14396376     0.09900
H173        H  0.67284855  0.10653848  0.18989562     0.14400
H174        H  0.60189709  0.12638799  0.12383743     0.00100
H175        H  0.60920911  0.10119905  0.25290029     0.14700
H176        H  0.62474534  0.02322797  0.17536250     0.14500
N177        N  0.73816018  0.02769232  0.53140079    -0.27500
N178        N  0.75835112  0.02148937  0.50889090    -0.35400
C179        C  0.75036422  0.01654536  0.47010088     0.00800
C180        C  0.72399203  0.01970957  0.46856714     0.06800
C181        C  0.71687860  0.02670475  0.50787527    -0.06300
H182        H  0.76287852  0.01302742  0.44458139     0.07500
H183        H  0.69782383  0.03239274  0.51827017     0.08700
Cu184      Cu  0.79588061  0.02580291  0.53083600     0.44200
Cu185      Cu  0.73997244  0.04023449  0.59202902     0.42000
Cu186      Cu  0.80051777  0.06321600  0.63321364     0.43900
N187        N  0.82928021  0.04629498  0.55731975    -0.34900
N188        N  0.82965513  0.06386140  0.59208601    -0.29200
C189        C  0.85308622  0.07755104  0.59883994    -0.05300
C190        C  0.86858643  0.06676185  0.56800222     0.07000
C191        C  0.85297271  0.04709385  0.54193853     0.00700
H192        H  0.85869051  0.09289418  0.62529512     0.08400
H193        H  0.85838334  0.03445833  0.51389385     0.07500
N194        N  0.76985258  0.05148114  0.66929329    -0.36400
N195        N  0.74701829  0.04440471  0.65338662    -0.28500
C196        C  0.73146935  0.03333653  0.68292465    -0.03800
C197        C  0.74531166  0.03304197  0.71909064     0.04800
C198        C  0.76962838  0.04461759  0.70963016     0.02900
H199        H  0.71232102  0.02294390  0.67785062     0.08000
H200        H  0.78629296  0.04519742  0.72972196     0.06900
C201        C  0.65260474  0.57048836  0.95873016     0.86300
C202        C  0.63090254  0.55106933  0.97990561    -0.54000
C203        C  0.61526309  0.57186505  0.00236004     0.09200
C204        C  0.62355687  0.61185703  0.00179658     0.20100
C205        C  0.64015017  0.60142526  0.93501805    -0.54700
C206        C  0.62480774  0.62339595  0.95631611     0.09300
C207        C  0.66698769  0.58992223  0.99402665    -0.54200
C208        C  0.65222691  0.61342690  0.01525625     0.09900
H209        H  0.62902837  0.52221472  0.97863795     0.14400
H210        H  0.61078886  0.62768958  0.02068574     0.00100
H211        H  0.64343822  0.60453820  0.90282610     0.14700
H212        H  0.68736037  0.58944393  0.99893162     0.14500
C213        C  0.63781096  0.42367045  0.23711109     0.86300
C214        C  0.62709605  0.45170304  0.20635687    -0.54000
C215        C  0.60663117  0.44014512  0.18328836     0.09200
C216        C  0.59841985  0.40169938  0.19333224     0.20100
C217        C  0.61404739  0.41480631  0.26219860    -0.54700
C218        C  0.59377308  0.40278358  0.23976793     0.09300
C219        C  0.64286246  0.39011014  0.21218691    -0.54200
C220        C  0.62262373  0.37826518  0.18869296     0.09900
H221        H  0.63458614  0.47866148  0.20353290     0.14400
H222        H  0.58156515  0.39335388  0.17467005     0.00100
H223        H  0.61250609  0.41997761  0.29456710     0.14700
H224        H  0.66101397  0.37616189  0.21415624     0.14500
N225        N  0.75508078  0.51714665  0.64037214    -0.27500
N226        N  0.77696690  0.51876305  0.66108121    -0.35400
C227        C  0.77215650  0.51630916  0.70118236     0.00800
C228        C  0.74598217  0.51269977  0.70550332     0.06800
C229        C  0.73573889  0.51340329  0.66642555    -0.06300
H230        H  0.78635268  0.51964060  0.72533511     0.07500
H231        H  0.71565830  0.51403304  0.65776278     0.08700
Cu232      Cu  0.81111469  0.53095936  0.63295490     0.44200
Cu233      Cu  0.75246089  0.52708028  0.57876834     0.42000
Cu234      Cu  0.80603835  0.57333694  0.53169216     0.43900
N235        N  0.84146469  0.55378313  0.60219811    -0.34900
N236        N  0.83950286  0.57267240  0.56794787    -0.29200
C237        C  0.86266759  0.58695472  0.55977892    -0.05300
C238        C  0.87989815  0.57590465  0.59005804     0.07000
C239        C  0.86586447  0.55435042  0.61566519     0.00700
H240        H  0.86684819  0.60292483  0.53302733     0.08400
H241        H  0.87291267  0.53997529  0.64229389     0.07500
N242        N  0.77260964  0.55766001  0.50020993    -0.36400
N243        N  0.75367225  0.54019026  0.51786432    -0.28500
C244        C  0.73700644  0.52860732  0.48927538    -0.03800
C245        C  0.74572172  0.53909045  0.45162367     0.04800
C246        C  0.76827263  0.55765796  0.45952638     0.02900
H247        H  0.72083618  0.51130469  0.49525755     0.08000
H248        H  0.78143468  0.56812648  0.43739414     0.06900
O249        O  0.08974392  0.58808112  0.52879595    -0.73200
O250        O  0.09429308  0.65994465  0.61738645    -0.74200
O251        O  0.12924434  0.62123117  0.57017532    -0.62800
O252        O  0.05058817  0.62360558  0.57602839    -0.71200
O253        O  0.05218652  0.57955339  0.62141911    -0.70700
O254        O  0.12910036  0.57639673  0.61502633    -0.62000
O255        O  0.09687335  0.61538970  0.66233107    -0.74500
O256        O  0.08989775  0.54245880  0.57256490    -0.73300
Cu257      Cu  0.09035744  0.62486510  0.57171977     1.04600
Cu258      Cu  0.09140772  0.57714560  0.61967982     1.04300
C259        C  0.09297270  0.55496547  0.53652143     0.93000
C260        C  0.10027759  0.64839986  0.65300357     0.92200
C261        C  0.14113112  0.59716810  0.59101437     0.84300
C262        C  0.03888615  0.60092877  0.59892924     0.90600
O263        O  0.95489269  0.59683514  0.66656104    -0.73200
O264        O  0.95960014  0.53511252  0.56511633    -0.74200
O265        O  0.99883706  0.57231635  0.61760356    -0.62800
O266        O  0.92133474  0.56050451  0.61444546    -0.71200
O267        O  0.91804403  0.60901754  0.57531085    -0.70700
O268        O  0.99607370  0.62086374  0.57888136    -0.62000
O269        O  0.95772435  0.58447971  0.52749347    -0.74500
O270        O  0.95288181  0.64535548  0.62737007    -0.73300
Cu271      Cu  0.95950206  0.56463221  0.61742874     1.04600
Cu272      Cu  0.95662575  0.61662786  0.57609990     1.04300
C273        C  0.94951538  0.62997720  0.66186979     0.93000
C274        C  0.95369577  0.55089491  0.53141675     0.92200
C275        C  0.00992816  0.59817019  0.59868479     0.84300
C276        C  0.90767288  0.58240955  0.59352769     0.90600
C277        C  0.89533173  0.66214170  0.72973927     0.86300
C278        C  0.91471353  0.63467920  0.71282462    -0.54000
C279        C  0.93553656  0.64970282  0.69397240     0.09200
C280        C  0.93570361  0.69064868  0.69621713     0.20100
C281        C  0.91189064  0.68434162  0.75869727    -0.54700
C282        C  0.93279731  0.69904487  0.74207153     0.09300
C283        C  0.88943077  0.68705281  0.69315582    -0.54200
C284        C  0.91029265  0.70231925  0.67450234     0.09900
H285        H  0.91218165  0.60615514  0.71317199     0.14400
H286        H  0.95361961  0.70199166  0.68491971     0.00100
H287        H  0.90761698  0.68771421  0.79073047     0.14700
H288        H  0.86984385  0.69358133  0.68529515     0.14500
C289        C  0.89241850  0.53488205  0.46786886     0.86300
C290        C  0.91302194  0.55326577  0.49378674    -0.54000
C291        C  0.93482077  0.53447603  0.50193139     0.09200
C292        C  0.93344457  0.49629730  0.48397024     0.20100
C293        C  0.90585218  0.52083299  0.43028873    -0.54700
C294        C  0.92753689  0.50204394  0.43766654     0.09300
C295        C  0.88726651  0.50086249  0.49364853    -0.54200
C296        C  0.90823370  0.47966207  0.50038020     0.09900
H297        H  0.90916184  0.57770176  0.50944435     0.14400
H298        H  0.95079773  0.48016848  0.49074499     0.00100
H299        H  0.89825203  0.52526308  0.39960695     0.14700
H300        H  0.86918735  0.49245070  0.50549521     0.14500
N301        N  0.77931631  0.61935011  0.16423265    -0.27500
N302        N  0.75984720  0.60475985  0.18359218    -0.35400
C303        C  0.76578198  0.60226633  0.22354860     0.00800
C304        C  0.79017048  0.61578563  0.22967057     0.06800
C305        C  0.79817805  0.62657251  0.19147444    -0.06300
H306        H  0.75413689  0.58872231  0.24591384     0.07500
H307        H  0.81707565  0.63600993  0.18360494     0.08700
Cu308      Cu  0.72856786  0.58140710  0.15479349     0.44200
Cu309      Cu  0.78182994  0.62058778  0.10124406     0.42000
Cu310      Cu  0.73838866  0.55562975  0.05300281     0.43900
N311        N  0.70200764  0.55168929  0.12198994    -0.34900
N312        N  0.70587699  0.54009826  0.08473918    -0.29200
C313        C  0.68458838  0.52278493  0.07145657    -0.05300
C314        C  0.66652463  0.52414394  0.10160537     0.07000
C315        C  0.67823042  0.54275430  0.13310153     0.00700
H316        H  0.68148772  0.51264509  0.04108377     0.08400
H317        H  0.66960631  0.55086338  0.16124709     0.07500
N318        N  0.76817716  0.58204038  0.02357235    -0.36400
N319        N  0.78305652  0.60680699  0.04024483    -0.28500
C320        C  0.79912715  0.61959100  0.01188416    -0.03800
C321        C  0.79416325  0.60192706  0.97568451     0.04800
C322        C  0.77458658  0.57829738  0.98436819     0.02900
H323        H  0.81328575  0.64028642  0.01719153     0.08000
H324        H  0.76555892  0.55987943  0.96349869     0.06900
C325        C  0.91340539  0.99054008  0.71632768     0.86300
C326        C  0.89446810  0.96818195  0.69072346    -0.54000
C327        C  0.90462921  0.95065575  0.65880138     0.09200
C328        C  0.93269555  0.96189918  0.65115236     0.20100
C329        C  0.93686451  0.96618409  0.72440011    -0.54700
C330        C  0.94654270  0.95010813  0.69054111     0.09300
C331        C  0.92447879  0.01766299  0.68649623    -0.54200
C332        C  0.93471554  0.00361671  0.65214859     0.09900
H333        H  0.87483329  0.96397948  0.69987646     0.14400
H334        H  0.93980391  0.94976735  0.62321650     0.00100
H335        H  0.94791316  0.96596878  0.75250764     0.14700
H336        H  0.92425425  0.04610457  0.69248473     0.14500
C337        C  0.88787511  0.17382298  0.43466055     0.86300
C338        C  0.88742783  0.20884175  0.45877621    -0.54000
C339        C  0.91038283  0.21881588  0.47656518     0.09200
C340        C  0.93198849  0.19173428  0.46842147     0.20100
C341        C  0.90958801  0.17893290  0.40416197    -0.54700
C342        C  0.93242528  0.18848192  0.42140730     0.09300
C343        C  0.89929884  0.14562422  0.46452939    -0.54200
C344        C  0.92207452  0.15516637  0.48256362     0.09900
H345        H  0.87041908  0.22526325  0.45991842     0.14400
H346        H  0.95075302  0.19829449  0.48288237     0.00100
H347        H  0.90733610  0.17433744  0.37161940     0.14700
H348        H  0.89151064  0.11912119  0.46907697     0.14500
N349        N  0.79129387  0.06837718  0.01474771    -0.27500
N350        N  0.77154724  0.05894514  0.99139414    -0.35400
C351        C  0.77908825  0.05781589  0.95243034     0.00800
C352        C  0.80492233  0.06647609  0.95128174     0.06800
C353        C  0.81195791  0.07314664  0.99138976    -0.06300
H354        H  0.76723007  0.04845430  0.92726581     0.07500
H355        H  0.83111004  0.07826956  0.00312633     0.08700
Cu356      Cu  0.73692109  0.04097376  0.01478406     0.44200
Cu357      Cu  0.79008197  0.06863558  0.07779324     0.42000
Cu358      Cu  0.73726104  0.02028450  0.12340288     0.43900
N359        N  0.70613155  0.01817099  0.04532562    -0.34900
N360        N  0.70671055  0.00895526  0.08440315    -0.29200
C361        C  0.68341215  0.99691193  0.09504262    -0.05300
C362        C  0.66734139  0.99898382  0.06116249     0.07000
C363        C  0.68235241  0.01259953  0.03024565     0.00700
H364        H  0.67801242  0.99026783  0.12591079     0.08400
H365        H  0.67608832  0.01975355  0.99958908     0.07500
N366        N  0.76631877  0.04483441  0.15679654    -0.36400
N367        N  0.78506060  0.06336275  0.14003931    -0.28500
C368        C  0.79938330  0.07845219  0.16969024    -0.03800
C369        C  0.78920734  0.06898264  0.20689757     0.04800
C370        C  0.76832039  0.04755917  0.19761576     0.02900
H371        H  0.81569668  0.09570753  0.16452207     0.08000
H372        H  0.75523001  0.03544103  0.21886999     0.06900
O373        O  0.11780214  0.11999350  0.57149450    -0.73200
O374        O  0.03906371  0.11708387  0.57664842    -0.74200
O375        O  0.08263057  0.09075715  0.62544200    -0.62800
O376        O  0.07790113  0.14960349  0.52234328    -0.71200
O377        O  0.07830491  0.10007927  0.48629968    -0.70700
O378        O  0.08293751  0.04018505  0.59114213    -0.62000
O379        O  0.03937904  0.06756192  0.54062775    -0.74500
O380        O  0.11639459  0.07045645  0.53499542    -0.73300
Cu381      Cu  0.07877848  0.12104103  0.57515034     1.04600
Cu382      Cu  0.07851651  0.06787999  0.53700816     1.04300
C383        C  0.12917987  0.09517369  0.55240551     0.93000
C384        C  0.02678648  0.09115042  0.55970594     0.92200
C385        C  0.08774519  0.05750972  0.62395587     0.84300
C386        C  0.08227756  0.13387025  0.48895852     0.90600
O387        O  0.98597038  0.06506463  0.53951927    -0.73200
O388        O  0.90895771  0.05307662  0.54167531    -0.74200
O389        O  0.94035038  0.09850313  0.49983608    -0.62800
O390        O  0.94855137  0.01909268  0.58371599    -0.71200
O391        O  0.94842208  0.06134354  0.63042772    -0.70700
O392        O  0.94060192  0.14001321  0.54754267    -0.62000
O393        O  0.90754939  0.09422137  0.58984779    -0.74500
O394        O  0.98520612  0.10677049  0.58667970    -0.73300
Cu395      Cu  0.94672534  0.05765564  0.53935815     1.04600
Cu396      Cu  0.94589791  0.10192290  0.59031187     1.04300
C397        C  0.99798928  0.08771232  0.56206646     0.93000
C398        C  0.89628697  0.07184318  0.56621957     0.92200
C399        C  0.93586636  0.13051171  0.51096934     0.84300
C400        C  0.94539727  0.02857550  0.62064491     0.90600
C401        C  0.14659815  0.68929268  0.73348784     0.86300
C402        C  0.15099964  0.72307516  0.70770151    -0.54000
C403        C  0.13017328  0.73489617  0.68528414     0.09200
C404        C  0.10625686  0.71072953  0.69166148     0.20100
C405        C  0.12360508  0.69808939  0.75994362    -0.54700
C406        C  0.10282395  0.70988792  0.73843161     0.09300
C407        C  0.13502745  0.66117023  0.70415234    -0.54200
C408        C  0.11410216  0.67237071  0.68207084     0.09900
H409        H  0.16892172  0.73779605  0.70959966     0.14400
H410        H  0.08895064  0.71820915  0.67370626     0.00100
H411        H  0.12317964  0.69364002  0.79271944     0.14700
H412        H  0.14161713  0.63386595  0.70259701     0.14500
C413        C  0.13613208  0.52303745  0.45160793     0.86300
C414        C  0.13694837  0.48400478  0.46744124    -0.54000
C415        C  0.11482630  0.47193119  0.48513580     0.09200
C416        C  0.09343444  0.50028592  0.48404325     0.20100
C417        C  0.11323024  0.52222801  0.42175436    -0.54700
C418        C  0.09110830  0.51079692  0.43831673     0.09300
C419        C  0.12732680  0.54490123  0.48781894    -0.54200
C420        C  0.10496356  0.53344482  0.50460874     0.09900
H421        H  0.15253784  0.46594077  0.46184569     0.14400
H422        H  0.07522792  0.49177816  0.49805146     0.00100
H423        H  0.11432242  0.53011183  0.38983892     0.14700
H424        H  0.13757829  0.56842048  0.49847420     0.14500
N425        N  0.25365571  0.55419456  0.14622983    -0.27500
N426        N  0.27567592  0.54781659  0.16531741    -0.35400
C427        C  0.27196640  0.54700278  0.20575689     0.00800
C428        C  0.24631404  0.55275313  0.21247782     0.06800
C429        C  0.23523386  0.55736167  0.17407464    -0.06300
H430        H  0.28668649  0.54147889  0.22850182     0.07500
H431        H  0.21520592  0.56187722  0.16690430     0.08700
Cu432      Cu  0.30892474  0.53655489  0.13497342     0.44200
Cu433      Cu  0.25030282  0.55607781  0.08309263     0.42000
Cu434      Cu  0.30321867  0.51611939  0.02754977     0.43900
N435        N  0.33870890  0.51828874  0.10039108    -0.34900
N436        N  0.33637796  0.50775096  0.06213585    -0.29200
C437        C  0.35947341  0.49731505  0.04920814    -0.05300
C438        C  0.37711904  0.50264073  0.08052597     0.07000
C439        C  0.36330296  0.51578610  0.11245826     0.00700
H440        H  0.36343998  0.48902965  0.01850495     0.08400
H441        H  0.37070471  0.52400801  0.14196599     0.07500
N442        N  0.27152907  0.54009902  0.99986359    -0.36400
N443        N  0.25281436  0.55520272  0.02000329    -0.28500
C444        C  0.23693638  0.57163404  0.99319246    -0.03800
C445        C  0.24605124  0.56671717  0.95438152     0.04800
C446        C  0.26798083  0.54656401  0.95969225     0.02900
H447        H  0.22053997  0.58729955  0.00147353     0.08000
H448        H  0.28100980  0.53855461  0.93628050     0.06900
C449        C  0.13741002  0.04438474  0.71079565     0.86300
C450        C  0.11959491  0.06361204  0.68042757    -0.54000
C451        C  0.10354553  0.04182514  0.65827897     0.09200
C452        C  0.10697539  0.00170122  0.66943226     0.20100
C453        C  0.11973543  0.02103736  0.73730962    -0.54700
C454        C  0.10359806  0.99961701  0.71593739     0.09300
C455        C  0.15143699  0.01669991  0.68481279    -0.54200
C456        C  0.13578004  0.99308606  0.66460819     0.09900
H457        H  0.12044277  0.09233538  0.67581216     0.14400
H458        H  0.09380543  0.98372903  0.65236438     0.00100
H459        H  0.11939547  0.02194844  0.77040576     0.14700
H460        H  0.17188450  0.01342977  0.68531730     0.14500
C461        C  0.13778424  0.15776598  0.41893379     0.86300
C462        C  0.11917159  0.13515807  0.44381909    -0.54000
C463        C  0.09813847  0.15245538  0.45728501     0.09200
C464        C  0.09789151  0.19265925  0.44420805     0.20100
C465        C  0.12161903  0.17537839  0.38458102    -0.54700
C466        C  0.10043113  0.19270744  0.39691794     0.09300
C467        C  0.14452422  0.18982407  0.44646234    -0.54200
C468        C  0.12387844  0.20890518  0.45905675     0.09900
H469        H  0.12333926  0.10763945  0.45223666     0.14400
H470        H  0.08092302  0.20728507  0.45495764     0.00100
H471        H  0.12727812  0.17498972  0.35298267     0.14700
H472        H  0.16365123  0.20009959  0.45115948     0.14500
N473        N  0.25456950  0.08504935  0.02000381    -0.27500
N474        N  0.27596785  0.08635354  0.99925785    -0.35400
C475        C  0.27016349  0.09013593  0.95935993     0.00800
C476        C  0.24386072  0.09144979  0.95524304     0.06800
C477        C  0.23451562  0.08812357  0.99408966    -0.06300
H478        H  0.28389500  0.08961479  0.93512621     0.07500
H479        H  0.21467019  0.08589948  0.00262697     0.08700
Cu480      Cu  0.31120287  0.07581480  0.02560753     0.44200
Cu481      Cu  0.25359653  0.07402075  0.08134749     0.42000
Cu482      Cu  0.31106732  0.03740807  0.12822786     0.43900
N483        N  0.34206993  0.05098719  0.05326712    -0.34900
N484        N  0.34166912  0.03470536  0.08923903    -0.29200
C485        C  0.36455891  0.01944048  0.09656474    -0.05300
C486        C  0.37994582  0.02683590  0.06368375     0.07000
C487        C  0.36524492  0.04716958  0.03710998     0.00700
H488        H  0.36997738  0.00563221  0.12455641     0.08400
H489        H  0.37097642  0.05857786  0.00821517     0.07500
N490        N  0.27891186  0.05102839  0.16036793    -0.36400
N491        N  0.25794486  0.06401030  0.14271105    -0.28500
C492        C  0.24151322  0.07351701  0.17143795    -0.03800
C493        C  0.25273088  0.06648865  0.20900797     0.04800
C494        C  0.27640062  0.05215248  0.20109019     0.02900
H495        H  0.22339622  0.08659924  0.16543949     0.08000
H496        H  0.29123420  0.04511046  0.22307830     0.06900
C497        C  0.24272792  0.07750081  0.24843657     0.01100
C498        C  0.23346468  0.05167281  0.27596409     0.03900
C499        C  0.22015691  0.06243363  0.31051722    -0.12100
C500        C  0.21559507  0.09900093  0.31690546     0.23200
C501        C  0.22607726  0.12486452  0.29050705    -0.12700
C502        C  0.23981342  0.11411167  0.25643952     0.04600
C503        C  0.19661099  0.10982431  0.34721147     0.27100
C504        C  0.17057366  0.10344396  0.33881406    -0.13400
C505        C  0.15236331  0.11245532  0.36750612     0.05100
C506        C  0.15917095  0.13509286  0.40054740    -0.09400
C507        C  0.18560009  0.13760363  0.41157348     0.06000
C508        C  0.20422531  0.12504373  0.38460448    -0.13700
Br509      Br  0.21986202  0.17490331  0.29917545    -0.05800
Br510      Br  0.23655954  0.00163729  0.26399321    -0.00200
Br511      Br  0.11862539  0.09144278  0.36193600     0.00300
Br512      Br  0.24024702  0.12892509  0.39817170    -0.04100
Br513      Br  0.25384477  0.14959014  0.21986008     0.00400
Br514      Br  0.20624990  0.02709693  0.34733506    -0.03400
Br515      Br  0.15946948  0.08479603  0.28654083    -0.04300
Br516      Br  0.19692774  0.14997034  0.46596066    -0.00300
C517        C  0.15364510  0.06957520  0.73782377     0.01100
C518        C  0.18064595  0.07210272  0.73556843     0.03900
C519        C  0.19520959  0.07928142  0.77114153    -0.12100
C520        C  0.18287302  0.08508546  0.80810067     0.23200
C521        C  0.15631506  0.09017781  0.80814404    -0.12700
C522        C  0.14203904  0.08537792  0.77195359     0.04600
C523        C  0.19805503  0.08683084  0.84642142     0.27100
C524        C  0.20608286  0.05496462  0.86584837    -0.13400
C525        C  0.22161948  0.05648086  0.90118608     0.05100
C526        C  0.22873672  0.08983336  0.91729949    -0.09400
C527        C  0.22064972  0.12161079  0.89804644     0.06000
C528        C  0.20543367  0.12013949  0.86237201    -0.13700
Br529      Br  0.13936638  0.10114077  0.85820762    -0.05800
Br530      Br  0.19730202  0.07429943  0.68372367    -0.00200
Br531      Br  0.23326938  0.01299575  0.92747237     0.00300
Br532      Br  0.19493613  0.16358682  0.83495763    -0.04100
Br533      Br  0.10676765  0.10010121  0.76977972     0.00400
Br534      Br  0.23200172  0.08137709  0.77036727    -0.03400
Br535      Br  0.19566042  0.00935437  0.84405425    -0.04300
Br536      Br  0.23041167  0.16703703  0.92077905    -0.00300
C537        C  0.12645890  0.24648413  0.47480932     0.01100
C538        C  0.11359457  0.25669332  0.51035004     0.03900
C539        C  0.11136879  0.29303955  0.52059986    -0.12100
C540        C  0.12250082  0.31964929  0.49597588     0.23200
C541        C  0.13763912  0.30956995  0.46296987    -0.12700
C542        C  0.13982929  0.27326392  0.45241356     0.04600
C543        C  0.11716565  0.35828458  0.50263435     0.27100
C544        C  0.09476856  0.37374401  0.48584084    -0.13400
C545        C  0.09217780  0.41115615  0.48376804     0.05100
C546        C  0.11219282  0.43354932  0.49859005    -0.09400
C547        C  0.13230782  0.41764555  0.52179228     0.06000
C548        C  0.13517871  0.38024087  0.52283757    -0.13700
Br549      Br  0.15373103  0.34619168  0.43011534    -0.05800
Br550      Br  0.10029913  0.22097339  0.54667903    -0.00200
Br551      Br  0.06096158  0.42983636  0.46039015     0.00300
Br552      Br  0.16419286  0.35895036  0.55064819    -0.04100
Br553      Br  0.15847095  0.26214403  0.40373206     0.00400
Br554      Br  0.09257582  0.30677975  0.56792374    -0.03400
Br555      Br  0.06776515  0.34353637  0.46459128    -0.04300
Br556      Br  0.15525915  0.44717277  0.55376746    -0.00300
C557        C  0.23336004  0.55163259  0.25217378     0.01100
C558        C  0.23940709  0.57724221  0.28210467     0.03900
C559        C  0.22708787  0.57623173  0.31990951    -0.12100
C560        C  0.20826664  0.55004834  0.32760639     0.23200
C561        C  0.20209668  0.52458110  0.29758555    -0.12700
C562        C  0.21491674  0.52498073  0.26025163     0.04600
C563        C  0.19399437  0.54983399  0.36633630     0.27100
C564        C  0.19961820  0.52439809  0.39710271    -0.13400
C565        C  0.18355255  0.52076625  0.43079593     0.05100
C566        C  0.15986940  0.53873012  0.43067325    -0.09400
C567        C  0.15717581  0.56910928  0.40458502     0.06000
C568        C  0.17381528  0.57394723  0.37173329    -0.13700
Br569      Br  0.17537972  0.48980700  0.30722960    -0.05800
Br570      Br  0.26329817  0.61520860  0.27031784    -0.00200
Br571      Br  0.19697426  0.49863461  0.48002453     0.00300
Br572      Br  0.16742745  0.61138664  0.33194416    -0.04100
Br573      Br  0.20776006  0.48816131  0.22087614     0.00400
Br574      Br  0.23520923  0.61158100  0.36052215    -0.03400
Br575      Br  0.22800167  0.49247459  0.39153697    -0.04300
Br576      Br  0.13023570  0.60347869  0.41226031    -0.00300
C577        C  0.13095500  0.77048831  0.66269534     0.01100
C578        C  0.11104043  0.79614834  0.66560284     0.03900
C579        C  0.11533186  0.83193807  0.65367942    -0.12100
C580        C  0.13930646  0.84306044  0.63941132     0.23200
C581        C  0.15789049  0.81724274  0.63138730    -0.12700
C582        C  0.15354640  0.78105045  0.64193176     0.04600
C583        C  0.14558736  0.88206298  0.63861522     0.27100
C584        C  0.13503819  0.90492821  0.60839986    -0.13400
C585        C  0.13426402  0.94209805  0.61490675     0.05100
C586        C  0.14455652  0.95681034  0.65126205    -0.09400
C587        C  0.15946928  0.93422228  0.67766463     0.06000
C588        C  0.15901776  0.89694475  0.67203145    -0.13700
Br589      Br  0.18968887  0.83215649  0.60739463    -0.05800
Br590      Br  0.07778760  0.78527206  0.68706657    -0.00200
Br591      Br  0.11939398  0.97293295  0.57357974     0.00300
Br592      Br  0.17436153  0.86566284  0.71295274    -0.04100
Br593      Br  0.17848977  0.74615309  0.62614556     0.00400
Br594      Br  0.08858816  0.86679702  0.65883361    -0.03400
Br595      Br  0.12002298  0.88477468  0.55961389    -0.04300
Br596      Br  0.17928794  0.95187127  0.72392479    -0.00300
C597        C  0.23591189  0.58339792  0.91637510     0.01100
C598        C  0.21051786  0.57622681  0.90340765     0.03900
C599        C  0.19973514  0.59511724  0.87008442    -0.12100
C600        C  0.21451202  0.62045786  0.84881313     0.23200
C601        C  0.24021146  0.62657426  0.86053762    -0.12700
C602        C  0.25083649  0.60845177  0.89462682     0.04600
C603        C  0.20217757  0.64255311  0.81634491     0.27100
C604        C  0.20161652  0.63130216  0.77555871    -0.13400
C605        C  0.18660256  0.64987278  0.74626965     0.05100
C606        C  0.17039961  0.67781918  0.75870739    -0.09400
C607        C  0.17592408  0.69359964  0.79706968     0.06000
C608        C  0.19070445  0.67501622  0.82646940    -0.13700
Br609      Br  0.26032345  0.66107329  0.83083915    -0.05800
Br610      Br  0.19050931  0.54019681  0.93095555    -0.00200
Br611      Br  0.19244762  0.64149742  0.68916869     0.00300
Br612      Br  0.19431969  0.69309281  0.88121171    -0.04100
Br613      Br  0.28503404  0.62046709  0.91337302     0.00400
Br614      Br  0.16429405  0.58758650  0.85452772    -0.03400
Br615      Br  0.22103201  0.59014939  0.76025647    -0.04300
Br616      Br  0.16541035  0.74169326  0.80867340    -0.00300
C617        C  0.95582360  0.19265790  0.39729031     0.01100
C618        C  0.97674629  0.17036491  0.40605079     0.03900
C619        C  0.00093554  0.17968432  0.39248864    -0.12100
C620        C  0.00363937  0.20816415  0.36454114     0.23200
C621        C  0.98212808  0.22716927  0.35036302    -0.12700
C622        C  0.95823312  0.22029695  0.36783151     0.04600
C623        C  0.02949254  0.21771205  0.35180991     0.27100
C624        C  0.04290378  0.24422561  0.37332929    -0.13400
C625        C  0.06929829  0.24063388  0.37903826     0.05100
C626        C  0.08129077  0.20896622  0.36780351    -0.09400
C627        C  0.06928333  0.18857268  0.33656569     0.06000
C628        C  0.04300204  0.19317622  0.32858007    -0.13700
Br629      Br  0.98580798  0.26304748  0.30824576    -0.05800
Br630      Br  0.97232388  0.12449438  0.43130635    -0.00200
Br631      Br  0.08936971  0.28027244  0.39653390     0.00300
Br632      Br  0.02434408  0.16169938  0.29239688    -0.04100
Br633      Br  0.92982021  0.25048221  0.35317140     0.00400
Br634      Br  0.03034497  0.15417115  0.41444528    -0.03400
Br635      Br  0.02509980  0.28196029  0.40008249    -0.04300
Br636      Br  0.08737741  0.15488710  0.30435489    -0.00300
C637        C  0.79826081  0.08128396  0.24739071     0.01100
C638        C  0.82376164  0.07469550  0.26004695     0.03900
C639        C  0.83381360  0.09086642  0.29539245    -0.12100
C640        C  0.81805278  0.11208793  0.31952908     0.23200
C641        C  0.79205741  0.11659622  0.30858872    -0.12700
C642        C  0.78230218  0.10203045  0.27198402     0.04600
C643        C  0.82978352  0.13245176  0.35370995     0.27100
C644        C  0.83170651  0.11763830  0.39323550    -0.13400
C645        C  0.84699457  0.13462316  0.42328112     0.05100
C646        C  0.86229494  0.16454885  0.41250485    -0.09400
C647        C  0.85518204  0.18337495  0.37625447     0.06000
C648        C  0.83998432  0.16660573  0.34617383    -0.13700
Br649      Br  0.77026662  0.14411401  0.34295631    -0.05800
Br650      Br  0.84495261  0.04316480  0.22921882    -0.00200
Br651      Br  0.84145988  0.12246306  0.47971967     0.00300
Br652      Br  0.83448219  0.18930130  0.29357996    -0.04100
Br653      Br  0.74798345  0.11381825  0.25378482     0.00400
Br654      Br  0.86964157  0.08568350  0.30963507    -0.03400
Br655      Br  0.81371020  0.07393856  0.40572169    -0.04300
Br656      Br  0.86530260  0.23233713  0.36775304    -0.00300
C657        C  0.96999634  0.92748636  0.69340615     0.01100
C658        C  0.97390284  0.90645630  0.72912309     0.03900
C659        C  0.99841641  0.90452897  0.74705525    -0.12100
C660        C  0.01904556  0.91891676  0.72580382     0.23200
C661        C  0.01594737  0.92776188  0.68412682    -0.12700
C662        C  0.99129057  0.93392228  0.66812207     0.04600
C663        C  0.03977855  0.93756006  0.74783777     0.27100
C664        C  0.03767246  0.97497616  0.74920396    -0.13400
C665        C  0.05914987  0.99602438  0.74089524     0.05100
C666        C  0.08291857  0.97945481  0.73569660    -0.09400
C667        C  0.08577486  0.94308096  0.74617019     0.06000
C668        C  0.06391196  0.92174146  0.75139600    -0.13700
Br669      Br  0.04556150  0.93993602  0.65226816    -0.05800
Br670      Br  0.94575472  0.88268560  0.75479395    -0.00200
Br671      Br  0.05516724  0.04659455  0.73213068     0.00300
Br672      Br  0.06643242  0.87101333  0.75999404    -0.04100
Br673      Br  0.98883182  0.95510047  0.61432850     0.00400
Br674      Br  0.00316222  0.88778713  0.80238944    -0.03400
Br675      Br  0.00448977  0.99671110  0.75413289    -0.04300
Br676      Br  0.11891876  0.92243265  0.75326702    -0.00300
C677        C  0.82244245  0.06072452  0.91693632     0.01100
C678        C  0.82338310  0.02690222  0.89858202     0.03900
C679        C  0.83875936  0.02156500  0.86462970    -0.12100
C680        C  0.85533819  0.04885080  0.85113917     0.23200
C681        C  0.85548029  0.08218981  0.87057806    -0.12700
C682        C  0.83863303  0.08839960  0.90287677     0.04600
C683        C  0.87331505  0.04078644  0.81792939     0.27100
C684        C  0.89377244  0.01770769  0.82641078    -0.13400
C685        C  0.90485447  0.99825737  0.79486257     0.05100
C686        C  0.89983424  0.00779376  0.75306567    -0.09400
C687        C  0.87994373  0.03323200  0.74517842     0.06000
C688        C  0.86659168  0.04888713  0.77733586    -0.13700
Br689      Br  0.87899889  0.11887864  0.85320632    -0.05800
Br690      Br  0.80618894  0.98637697  0.92260826    -0.00200
Br691      Br  0.91853149  0.95278213  0.81241124     0.00300
Br692      Br  0.83797829  0.08028028  0.76620350    -0.04100
Br693      Br  0.83763622  0.13484083  0.92748504     0.00400
Br694      Br  0.83716527  0.97647588  0.83651931    -0.03400
Br695      Br  0.90465091  0.01019384  0.88260791    -0.04300
Br696      Br  0.86770773  0.04393350  0.69058446    -0.00300
C697        C  0.06718213  0.50870902  0.41417792     0.01100
C698        C  0.06450428  0.48573467  0.38034233     0.03900
C699        C  0.04003306  0.47955229  0.36302073    -0.12100
C700        C  0.01847153  0.49418109  0.38153719     0.23200
C701        C  0.02171344  0.51841857  0.41409059    -0.12700
C702        C  0.04612874  0.52771742  0.42761743     0.04600
C703        C  0.99226348  0.48388350  0.36907659     0.27100
C704        C  0.97627905  0.51127189  0.35460848    -0.13400
C705        C  0.95282931  0.51673173  0.37392037     0.05100
C706        C  0.94471808  0.49146938  0.40399538    -0.09400
C707        C  0.95713567  0.45819607  0.40600549     0.06000
C708        C  0.98139396  0.45458791  0.38929629    -0.13700
Br709      Br  0.99349562  0.53729708  0.44411931    -0.05800
Br710      Br  0.09358861  0.46062492  0.35965682    -0.00200
Br711      Br  0.93679998  0.56262126  0.36532817     0.00300
Br712      Br  0.00125796  0.41218321  0.39987398    -0.04100
Br713      Br  0.05054889  0.56864813  0.46196347     0.00400
Br714      Br  0.03583792  0.45027395  0.31533434    -0.03400
Br715      Br  0.99027349  0.54609093  0.31737000    -0.04300
Br716      Br  0.94166460  0.41781589  0.43150684    -0.00300
C717        C  0.91365566  0.25425317  0.49800822     0.01100
C718        C  0.93419008  0.27808731  0.48915034     0.03900
C719        C  0.93383819  0.31360983  0.50296887    -0.12100
C720        C  0.91254599  0.32659510  0.52356870     0.23200
C721        C  0.89382532  0.30230001  0.53697324    -0.12700
C722        C  0.89466359  0.26614029  0.52515264     0.04600
C723        C  0.90757715  0.36587805  0.52315022     0.27100
C724        C  0.91886582  0.38887586  0.55224990    -0.13400
C725        C  0.91792639  0.42631506  0.54622882     0.05100
C726        C  0.90530709  0.44094566  0.51151394    -0.09400
C727        C  0.89135815  0.41782073  0.48512853     0.06000
C728        C  0.89317473  0.38055612  0.49033289    -0.13700
Br729      Br  0.86672810  0.31931125  0.57061187    -0.05800
Br730      Br  0.96233888  0.26516925  0.45559778    -0.00200
Br731      Br  0.93313486  0.45768517  0.58607601     0.00300
Br732      Br  0.87808739  0.34931258  0.44976932    -0.04100
Br733      Br  0.86999428  0.23304753  0.54735984     0.00400
Br734      Br  0.96226771  0.34536638  0.49247573    -0.03400
Br735      Br  0.93611195  0.36886666  0.59955698    -0.04300
Br736      Br  0.87233666  0.43611467  0.43821467    -0.00300
C737        C  0.87066737  0.55978469  0.45159616     0.01100
C738        C  0.84697721  0.54423471  0.43832502     0.03900
C739        C  0.83517571  0.55521741  0.40140320    -0.12100
C740        C  0.84416200  0.58528907  0.38042344     0.23200
C741        C  0.86453391  0.60516410  0.39661810    -0.12700
C742        C  0.87781991  0.59294724  0.43184372     0.04600
C743        C  0.83199808  0.59590569  0.34106770     0.27100
C744        C  0.83976109  0.57967801  0.30486941    -0.13400
C745        C  0.82660260  0.58696876  0.26795764     0.05100
C746        C  0.80591028  0.61108594  0.26715119    -0.09400
C747        C  0.79883952  0.62831235  0.30320989     0.06000
C748        C  0.81185843  0.62068828  0.34016520    -0.13700
Br749      Br  0.87554483  0.64762059  0.36739585    -0.05800
Br750      Br  0.82759966  0.51175848  0.47157464    -0.00200
Br751      Br  0.83577310  0.56151642  0.21954193     0.00300
Br752      Br  0.80183446  0.64340887  0.38987236    -0.04100
Br753      Br  0.90621536  0.62307968  0.44916109     0.00400
Br754      Br  0.80771914  0.52745526  0.37710637    -0.03400
Br755      Br  0.86786537  0.54638271  0.30650689    -0.04300
Br756      Br  0.77124390  0.66229696  0.30199093    -0.00300
C757        C  0.95258201  0.71700929  0.76759331     0.01100
C758        C  0.96220714  0.75026370  0.75503104     0.03900
C759        C  0.98749003  0.75955752  0.76520468    -0.12100
C760        C  0.00153210  0.73721220  0.79199311     0.23200
C761        C  0.98850435  0.71158816  0.81543240    -0.12700
C762        C  0.96458132  0.69917594  0.80117669     0.04600
C763        C  0.02840543  0.72969664  0.78265099     0.27100
C764        C  0.03379887  0.69822880  0.76102681    -0.13400
C765        C  0.05896397  0.68984156  0.75250588     0.05100
C766        C  0.07819067  0.71550508  0.75801845    -0.09400
C767        C  0.07339555  0.74636573  0.78086795     0.06000
C768        C  0.04850293  0.75270897  0.79470335    -0.13700
Br769      Br  0.00655785  0.68773770  0.85965720    -0.05800
Br770      Br  0.94054471  0.78288310  0.72554306    -0.00200
Br771      Br  0.06723458  0.64149732  0.73884713     0.00300
Br772      Br  0.04189129  0.79233362  0.82987972    -0.04100
Br773      Br  0.95206299  0.65416744  0.82235132     0.00400
Br774      Br  0.00366222  0.79907614  0.73764885    -0.03400
Br775      Br  0.00724847  0.66687975  0.73988748    -0.04300
Br776      Br  0.10059095  0.77983984  0.79271985    -0.00300
C777        C  0.89485873  0.91417054  0.64652953     0.01100
C778        C  0.89723032  0.90306153  0.60559087     0.03900
C779        C  0.89580638  0.86646439  0.59577163    -0.12100
C780        C  0.89103430  0.84084177  0.62640126     0.23200
C781        C  0.88441506  0.85210383  0.66548240    -0.12700
C782        C  0.88674900  0.88828587  0.67613079     0.04600
C783        C  0.89715076  0.80246168  0.62077984     0.27100
C784        C  0.87777162  0.77650473  0.61601339    -0.13400
C785        C  0.88332299  0.74034990  0.62470589     0.05100
C786        C  0.90771326  0.73089328  0.64117023    -0.09400
C787        C  0.92802923  0.75477766  0.63239924     0.06000
C788        C  0.92270545  0.79112248  0.62526331    -0.13700
Br789      Br  0.87370677  0.81693918  0.70552221    -0.05800
Br790      Br  0.90219841  0.93788203  0.56264051    -0.00200
Br791      Br  0.85958269  0.70386108  0.60671178     0.00300
Br792      Br  0.95036874  0.82555968  0.62535570    -0.04100
Br793      Br  0.88043707  0.89911750  0.73272755     0.00400
Br794      Br  0.90144578  0.85081563  0.54089647    -0.03400
Br795      Br  0.84374625  0.79078091  0.59957752    -0.04300
Br796      Br  0.96165838  0.73801068  0.61952115    -0.00300
C797        C  0.80628616  0.60758649  0.93560357     0.01100
C798        C  0.83297788  0.60361394  0.93152133     0.03900
C799        C  0.84427750  0.60923794  0.89329049    -0.12100
C800        C  0.82889285  0.61773831  0.85876707     0.23200
C801        C  0.80215081  0.61983178  0.86238810    -0.12700
C802        C  0.79098469  0.61611842  0.90087933     0.04600
C803        C  0.84108684  0.62853891  0.81995271     0.27100
C804        C  0.84368311  0.66496336  0.81028104    -0.13400
C805        C  0.85773619  0.67571805  0.77610824     0.05100
C806        C  0.87111543  0.64996483  0.75293488    -0.09400
C807        C  0.86371958  0.61374350  0.75802090     0.06000
C808        C  0.84975273  0.60295338  0.79249399    -0.13700
Br809      Br  0.78092706  0.62846411  0.81445962    -0.05800
Br810      Br  0.85414282  0.58978297  0.97788581    -0.00200
Br811      Br  0.85945268  0.72630144  0.76348452     0.00300
Br812      Br  0.84232926  0.55314164  0.80235725    -0.04100
Br813      Br  0.75511341  0.62647551  0.90622490     0.00400
Br814      Br  0.88093683  0.60595860  0.88813112    -0.03400
Br815      Br  0.82932743  0.70031789  0.84565468    -0.04300
Br816      Br  0.86591064  0.58064208  0.71412884    -0.00300
C817        C  0.66128884  0.43543752  0.26292489     0.01100
C818        C  0.68046569  0.45842435  0.24704193     0.03900
C819        C  0.69776869  0.47594728  0.27382885    -0.12100
C820        C  0.69642812  0.46981908  0.31617525     0.23200
C821        C  0.68044578  0.44246193  0.33096335    -0.12700
C822        C  0.66466925  0.42331347  0.30382040     0.04600
C823        C  0.71229373  0.49077054  0.34547116     0.27100
C824        C  0.73358267  0.47479728  0.36518375    -0.13400
C825        C  0.74472575  0.49077400  0.39985686     0.05100
C826        C  0.73632693  0.52454535  0.41245653    -0.09400
C827        C  0.71648942  0.54193685  0.39059402     0.06000
C828        C  0.70402085  0.52467307  0.35778255    -0.13700
Br829      Br  0.67950879  0.43161563  0.38869245    -0.05800
Br830      Br  0.68583394  0.46211508  0.18907387    -0.00200
Br831      Br  0.76941295  0.46443370  0.43254998     0.00300
Br832      Br  0.67435864  0.54608788  0.33175015    -0.04100
Br833      Br  0.65245428  0.37693014  0.32126310     0.00400
Br834      Br  0.72347721  0.50804495  0.25292803    -0.03400
Br835      Br  0.74641425  0.42995280  0.34595398    -0.04300
Br836      Br  0.70528747  0.58829202  0.40756282    -0.00300
C837        C  0.66627252  0.54684853  0.92728586     0.01100
C838        C  0.69309175  0.54074298  0.92748701     0.03900
C839        C  0.70551077  0.53329261  0.89080797    -0.12100
C840        C  0.69120097  0.52849197  0.85464087     0.23200
C841        C  0.66445315  0.52758788  0.85562349    -0.12700
C842        C  0.65192016  0.53571211  0.89185543     0.04600
C843        C  0.70438230  0.52402288  0.81557542     0.27100
C844        C  0.70842661  0.55391459  0.79005661    -0.13400
C845        C  0.72198989  0.55013236  0.75382202     0.05100
C846        C  0.73162969  0.51649424  0.74327366    -0.09400
C847        C  0.72716180  0.48651240  0.76838993     0.06000
C848        C  0.71332800  0.49021299  0.80440574    -0.13700
Br849      Br  0.64512875  0.51722987  0.80619126    -0.05800
Br850      Br  0.71267360  0.53393277  0.97684509    -0.00200
Br851      Br  0.72768615  0.59113028  0.71893908     0.00300
Br852      Br  0.70639530  0.44915039  0.83849257    -0.04100
Br853      Br  0.61484878  0.53391177  0.89026003     0.00400
Br854      Br  0.74237187  0.52977949  0.88932786    -0.03400
Br855      Br  0.69535894  0.59997246  0.80493181    -0.04300
Br856      Br  0.73985121  0.44043671  0.75320396    -0.00300
C857        C  0.64812194  0.16092402  0.14507732     0.01100
C858        C  0.65813970  0.18396421  0.17622999     0.03900
C859        C  0.65680334  0.22134400  0.17108182    -0.12100
C860        C  0.64488897  0.23635027  0.13621396     0.23200
C861        C  0.63797519  0.21416174  0.10342461    -0.12700
C862        C  0.64047664  0.17673274  0.10731683     0.04600
C863        C  0.63613736  0.27416912  0.13801784     0.27100
C864        C  0.61255098  0.28125417  0.15604571    -0.13400
C865        C  0.60656949  0.31606239  0.16845193     0.05100
C866        C  0.62460941  0.34426211  0.16438873    -0.09400
C867        C  0.64676962  0.33772476  0.14116482     0.06000
C868        C  0.65253583  0.30279481  0.12833179    -0.13700
Br869      Br  0.62362599  0.23514855  0.05427376    -0.05800
Br870      Br  0.67250693  0.16726285  0.22786128    -0.00200
Br871      Br  0.57376977  0.32293969  0.19176896     0.00300
Br872      Br  0.68347762  0.29343623  0.09937183    -0.04100
Br873      Br  0.63358519  0.14707778  0.06055089     0.00400
Br874      Br  0.66947222  0.25286582  0.21347110    -0.03400
Br875      Br  0.58921847  0.24211847  0.16670126    -0.04300
Br876      Br  0.66912302  0.37659361  0.12584552    -0.00300
C877        C  0.70759140  0.02142100  0.43169794     0.01100
C878        C  0.69798088  0.05454335  0.41777044     0.03900
C879        C  0.68457858  0.05668819  0.38031836    -0.12100
C880        C  0.68053557  0.02572442  0.35707799     0.23200
C881        C  0.68871222  0.99231040  0.37219552    -0.12700
C882        C  0.70234360  0.99018755  0.40951466     0.04600
C883        C  0.66929551  0.02925764  0.31557823     0.27100
C884        C  0.64270466  0.02788972  0.30933799    -0.13400
C885        C  0.63214669  0.03752502  0.27111851     0.05100
C886        C  0.64806570  0.05277192  0.24067413    -0.09400
C887        C  0.67477847  0.04635444  0.24441059     0.06000
C888        C  0.68534360  0.03548276  0.28234872    -0.13700
Br889      Br  0.68173944  0.94983413  0.34118355    -0.05800
Br890      Br  0.70409996  0.09730619  0.44887911    -0.00200
Br891      Br  0.59627323  0.02732558  0.26050111     0.00300
Br892      Br  0.72173500  0.02867757  0.28951465    -0.04100
Br893      Br  0.71361980  0.94457407  0.43061831     0.00400
Br894      Br  0.67246680  0.10223103  0.35989932    -0.03400
Br895      Br  0.62087932  0.01407927  0.35365539    -0.04300
Br896      Br  0.69621989  0.04423458  0.19723437    -0.00300
C897        C  0.66296862  0.64732899  0.03377820     0.01100
C898        C  0.68209688  0.66846467  0.01427662     0.03900
C899        C  0.68512923  0.70473957  0.02453034    -0.12100
C900        C  0.66571107  0.72196910  0.04584481     0.23200
C901        C  0.64960508  0.70057913  0.07038805    -0.12700
C902        C  0.64980539  0.66299107  0.06627345     0.04600
C903        C  0.65881988  0.75966433  0.03339307     0.27100
C904        C  0.65931584  0.78846918  0.06105120    -0.13400
C905        C  0.65140291  0.82302802  0.04799534     0.05100
C906        C  0.64638883  0.83036124  0.00628646    -0.09400
C907        C  0.64950457  0.80245843  0.97805054     0.06000
C908        C  0.65317396  0.76718220  0.99166010    -0.13700
Br909      Br  0.62453929  0.72187970  0.10487834    -0.05800
Br910      Br  0.70081623  0.65275911  0.96759458    -0.00200
Br911      Br  0.64904243  0.86110466  0.08669031     0.00300
Br912      Br  0.65091598  0.72973832  0.95124732    -0.04100
Br913      Br  0.63041836  0.63311501  0.10278400     0.00400
Br914      Br  0.71300906  0.73291834  0.00305899    -0.03400
Br915      Br  0.67357915  0.78189993  0.11525723    -0.04300
Br916      Br  0.65272875  0.81158150  0.92035913    -0.00300
C917        C  0.66290307  0.93515965  0.91067130     0.01100
C918        C  0.68949254  0.94021567  0.91908958     0.03900
C919        C  0.70516568  0.95515035  0.88898725    -0.12100
C920        C  0.69435844  0.96765408  0.85213074     0.23200
C921        C  0.66778543  0.96733829  0.84580240    -0.12700
C922        C  0.65195588  0.95286912  0.87573325     0.04600
C923        C  0.71073639  0.98367936  0.82092298     0.27100
C924        C  0.71605755  0.02053313  0.82171944    -0.13400
C925        C  0.72953375  0.03646242  0.78969747     0.05100
C926        C  0.73702342  0.01559815  0.75669154    -0.09400
C927        C  0.73305685  0.97837584  0.75717743     0.06000
C928        C  0.71980979  0.96239183  0.78934957    -0.13700
Br929      Br  0.65317088  0.98647152  0.79553310    -0.05800
Br930      Br  0.70437860  0.93525277  0.97330690    -0.00200
Br931      Br  0.73664552  0.08698256  0.78992836     0.00300
Br932      Br  0.71282009  0.91176196  0.78930209    -0.04100
Br933      Br  0.61536391  0.96061114  0.86904362     0.00400
Br934      Br  0.74162948  0.95923383  0.89796469    -0.03400
Br935      Br  0.70345627  0.04929583  0.86539917    -0.04300
Br936      Br  0.74542865  0.94941864  0.71346110    -0.00300
C937        C  0.58022775  0.14361656  0.19899174     0.01100
C938        C  0.58031960  0.16575835  0.23414873     0.03900
C939        C  0.55742376  0.18220779  0.24566205    -0.12100
C940        C  0.53588237  0.18012584  0.21977842     0.23200
C941        C  0.53888035  0.16848443  0.17970672    -0.12700
C942        C  0.55887054  0.14530316  0.17171523     0.04600
C943        C  0.51064649  0.17185732  0.23695766     0.27100
C944        C  0.50590245  0.13553113  0.24595454    -0.13400
C945        C  0.48249461  0.12025848  0.23401029     0.05100
C946        C  0.46314763  0.14204141  0.21695941    -0.09400
C947        C  0.46603514  0.17934922  0.21734188     0.06000
C948        C  0.49000804  0.19434960  0.22733176    -0.13700
Br949      Br  0.51271052  0.17767921  0.13867728    -0.05800
Br950      Br  0.61045192  0.17345009  0.26774223    -0.00200
Br951      Br  0.47840458  0.06916319  0.23666264     0.00300
Br952      Br  0.49604748  0.24463419  0.22199925    -0.04100
Br953      Br  0.55199531  0.11033611  0.13006386     0.00400
Br954      Br  0.55408757  0.20393118  0.29821082    -0.03400
Br955      Br  0.53281455  0.10535773  0.26791197    -0.04300
Br956      Br  0.43786545  0.20939892  0.20208070    -0.00300
C957        C  0.38274327  0.07198510  0.22250377     0.01100
C958        C  0.38812755  0.04053082  0.24646289     0.03900
C959        C  0.37084634  0.02822853  0.27600274    -0.12100
C960        C  0.34895474  0.04793658  0.28449420     0.23200
C961        C  0.34355117  0.07929145  0.26238650    -0.12700
C962        C  0.36106883  0.09270295  0.23389552     0.04600
C963        C  0.33529644  0.04109679  0.32301947     0.27100
C964        C  0.31542523  0.01569942  0.32512467    -0.13400
C965        C  0.30130898  0.01206363  0.36108106     0.05100
C966        C  0.30722062  0.03361667  0.39505630    -0.09400
C967        C  0.32776497  0.05819074  0.39329059     0.06000
C968        C  0.34193062  0.06157151  0.35751556    -0.13700
Br969      Br  0.31327889  0.10615586  0.27558618    -0.05800
Br970      Br  0.42122220  0.01752501  0.24790597    -0.00200
Br971      Br  0.27428843  0.97693085  0.36415063     0.00300
Br972      Br  0.37040513  0.09474751  0.35538793    -0.04100
Br973      Br  0.35768193  0.14313973  0.22105630     0.00400
Br974      Br  0.37827713  0.98594324  0.30852690    -0.03400
Br975      Br  0.30799020  0.98563917  0.27903169    -0.04300
Br976      Br  0.33563501  0.08929883  0.43849149    -0.00300
C977        C  0.59017022  0.84551130  0.91598806     0.01100
C978        C  0.58552246  0.84756389  0.87331076     0.03900
C979        C  0.56063176  0.85457092  0.85899122    -0.12100
C980        C  0.54077178  0.85443124  0.88711426     0.23200
C981        C  0.54490304  0.83994162  0.92649971    -0.12700
C982        C  0.56994808  0.83300570  0.93985572     0.04600
C983        C  0.51717005  0.87402797  0.87865482     0.27100
C984        C  0.51540497  0.90895634  0.89356584    -0.13400
C985        C  0.49132970  0.92436711  0.89784896     0.05100
C986        C  0.46920130  0.90413100  0.88895940    -0.09400
C987        C  0.47123187  0.87087928  0.86968092     0.06000
C988        C  0.49539869  0.85604177  0.86383051    -0.13700
Br989      Br  0.51708423  0.83438279  0.96370325    -0.05800
Br990      Br  0.61147206  0.83535759  0.83493182    -0.00200
Br991      Br  0.48891199  0.97267384  0.91668645     0.00300
Br992      Br  0.49880289  0.81002211  0.83881634    -0.04100
Br993      Br  0.57639794  0.80293114  0.98687929     0.00400
Br994      Br  0.55416491  0.86695495  0.80259181    -0.03400
Br995      Br  0.54582712  0.93400061  0.91226879    -0.04300
Br996      Br  0.44126821  0.84437421  0.85375882    -0.00300
C997        C  0.30245196  0.04347897  0.72652098     0.01100
C998        C  0.32666561  0.05865778  0.73509842     0.03900
C999        C  0.34057894  0.04806544  0.77030709    -0.12100
C1000       C  0.33036666  0.02214356  0.79692388     0.23200
C1001       C  0.30522637  0.00928218  0.79019826    -0.12700
C1002       C  0.29142965  0.01946048  0.75465643     0.04600
C1003       C  0.34787777  0.00250198  0.82536083     0.27100
C1004       C  0.36191571  0.97393698  0.81006185    -0.13400
C1005       C  0.37813454  0.95384835  0.83602091     0.05100
C1006       C  0.38240796  0.96415799  0.87742938    -0.09400
C1007       C  0.36525456  0.98961775  0.89357313     0.06000
C1008       C  0.34911473  0.00988733  0.86726644    -0.13700
Br1009     Br  0.29068803  0.97527296  0.82792901    -0.05800
Br1010     Br  0.34146817  0.09218448  0.69711303    -0.00200
Br1011     Br  0.39027889  0.90923899  0.81462636     0.00300
Br1012     Br  0.32836324  0.04760362  0.88841295    -0.04100
Br1013     Br  0.25891793  0.99698857  0.74208892     0.00400
Br1014     Br  0.37461286  0.06651789  0.78044682    -0.03400
Br1015     Br  0.35839726  0.96192057  0.75285403    -0.04300
Br1016     Br  0.35941529  0.99235109  0.95143632    -0.00300
C1017       C  0.44114014  0.36742611  0.24821532     0.01100
C1018       C  0.44772316  0.37623810  0.28919974     0.03900
C1019       C  0.47365760  0.37646673  0.30140263    -0.12100
C1020       C  0.49210412  0.36603730  0.27347893     0.23200
C1021       C  0.48445275  0.34865518  0.23749089    -0.12700
C1022       C  0.45853411  0.34620386  0.22742334     0.04600
C1023       C  0.51850428  0.37894289  0.27724520     0.27100
C1024       C  0.52406990  0.41303067  0.26135392    -0.13400
C1025       C  0.54936189  0.42215984  0.25291757     0.05100
C1026       C  0.56871613  0.39653845  0.25825686    -0.09400
C1027       C  0.56368525  0.36460611  0.27990462     0.06000
C1028       C  0.53831719  0.35566111  0.28921654    -0.13700
Br1029     Br  0.50886278  0.33486285  0.19764767    -0.05800
Br1030     Br  0.42246428  0.38093903  0.33084558    -0.00200
Br1031     Br  0.55732601  0.47015808  0.23596588     0.00300
Br1032     Br  0.53026330  0.31077811  0.31533259    -0.04100
Br1033     Br  0.44718128  0.31250428  0.18724765     0.00400
Br1034     Br  0.48427844  0.39450610  0.35393362    -0.03400
Br1035     Br  0.49678182  0.44585664  0.24718985    -0.04300
Br1036     Br  0.59106819  0.33243983  0.29488471    -0.00300
C1037       C  0.39235854  0.34669341  0.14514055     0.01100
C1038       C  0.38435980  0.31879126  0.17163139     0.03900
C1039       C  0.38459892  0.28301786  0.15858335    -0.12100
C1040       C  0.39209605  0.27466400  0.11861185     0.23200
C1041       C  0.39661298  0.30289893  0.09069263    -0.12700
C1042       C  0.39744895  0.33863310  0.10420120     0.04600
C1043       C  0.39659193  0.23642676  0.10746081     0.27100
C1044       C  0.42163236  0.22358048  0.10137878    -0.13400
C1045       C  0.42602936  0.18653049  0.09942347     0.05100
C1046       C  0.40635984  0.16223124  0.10951197    -0.09400
C1047       C  0.38096534  0.17486935  0.10356194     0.06000
C1048       C  0.37606296  0.21194751  0.10390612    -0.13700
Br1049     Br  0.40095175  0.29256715  0.03378411    -0.05800
Br1050     Br  0.37494294  0.32842693  0.22712830    -0.00200
Br1051     Br  0.45553689  0.17021933  0.07090180     0.00300
Br1052     Br  0.34141631  0.22924969  0.09984122    -0.04100
Br1053     Br  0.40555644  0.37682029  0.06675649     0.00400
Br1054     Br  0.37558416  0.24538247  0.19654848    -0.03400
Br1055     Br  0.45046490  0.25571055  0.09808762    -0.04300
Br1056     Br  0.35410154  0.14289443  0.08536646    -0.00300
C1057       C  0.29792335  0.52393922  0.39367572     0.01100
C1058       C  0.30543283  0.54879071  0.36358060     0.03900
C1059       C  0.31585051  0.53682224  0.32690720    -0.12100
C1060       C  0.31988060  0.50003711  0.32104442     0.23200
C1061       C  0.31146339  0.47516600  0.35048875    -0.12700
C1062       C  0.30020055  0.48704963  0.38645113     0.04600
C1063       C  0.33655660  0.48786767  0.28773749     0.27100
C1064       C  0.32629253  0.47074424  0.25305943    -0.13400
C1065       C  0.34266238  0.45727700  0.22314318     0.05100
C1066       C  0.36964503  0.45688038  0.23034566    -0.09400
C1067       C  0.37959580  0.47824966  0.26294800     0.06000
C1068       C  0.36315563  0.49288350  0.29164838    -0.13700
Br1069     Br  0.31718884  0.42482712  0.34302584    -0.05800
Br1070     Br  0.30456581  0.59918480  0.37470979    -0.00200
Br1071     Br  0.32743466  0.44734411  0.17036937     0.00300
Br1072     Br  0.37733821  0.51777432  0.33848021    -0.04100
Br1073     Br  0.28860523  0.45254176  0.42631786     0.00400
Br1074     Br  0.32679388  0.57086757  0.28615295    -0.03400
Br1075     Br  0.28967146  0.46441068  0.24755946    -0.04300
Br1076     Br  0.41598266  0.48775215  0.27020246    -0.00300
C1077       C  0.48587173  0.61656519  0.91761287     0.01100
C1078       C  0.48909737  0.64970602  0.89728519     0.03900
C1079       C  0.51379834  0.66233690  0.88926389    -0.12100
C1080       C  0.53495656  0.64225507  0.90246954     0.23200
C1081       C  0.53162152  0.60774222  0.91924474    -0.12700
C1082       C  0.50698171  0.59459553  0.92596057     0.04600
C1083       C  0.56029379  0.65888077  0.90584549     0.27100
C1084       C  0.57957097  0.64991542  0.87882606    -0.13400
C1085       C  0.60498840  0.65086251  0.89298539     0.05100
C1086       C  0.60974429  0.65279170  0.93566069    -0.09400
C1087       C  0.59191202  0.67224394  0.95801113     0.06000
C1088       C  0.56701761  0.67590680  0.94243265    -0.13700
Br1089     Br  0.56067997  0.57946176  0.93634974    -0.05800
Br1090     Br  0.46029415  0.67981700  0.88428897    -0.00200
Br1091     Br  0.63199362  0.65686434  0.85422707     0.00300
Br1092     Br  0.54222038  0.70220955  0.97197866    -0.04100
Br1093     Br  0.50218585  0.54667537  0.94670629     0.00400
Br1094     Br  0.51900305  0.70812310  0.86317332    -0.03400
Br1095     Br  0.57108966  0.63404863  0.82466145    -0.04300
Br1096     Br  0.60096732  0.69608750  0.00749402    -0.00300
C1097       C  0.40647134  0.85509386  0.96257711     0.01100
C1098       C  0.41497893  0.84477236  0.00217244     0.01500
C1099       C  0.41726739  0.80832197  0.01299028    -0.12100
C1100       C  0.41098530  0.78174237  0.98439121     0.23200
C1101       C  0.40043297  0.79173174  0.94619749    -0.12700
C1102       C  0.39705418  0.82805146  0.93593136     0.04600
C1103       C  0.41682662  0.74337984  0.99281866     0.27100
C1104       C  0.44170432  0.73069219  0.98700705    -0.13400
C1105       C  0.44667732  0.69380757  0.98880675     0.05100
C1106       C  0.42623390  0.66880834  0.99138291    -0.09400
C1107       C  0.40209931  0.68194319  0.00311762     0.06000
C1108       C  0.39742590  0.71905011  0.00372845    -0.13700
Br1109     Br  0.39229520  0.75523083  0.90662808    -0.05800
Br1110     Br  0.42150902  0.88046538  0.04289901    -0.00200
Br1111     Br  0.48176415  0.67991122  0.99231012     0.00300
Br1112     Br  0.36423130  0.73677477  0.01767667    -0.04100
Br1113     Br  0.37884241  0.83875754  0.88554629     0.00400
Br1114     Br  0.42994618  0.79455187  0.06645657    -0.03400
Br1115     Br  0.46877783  0.76396872  0.97387607    -0.04300
Br1116     Br  0.37587147  0.64908397  0.02069497    -0.00300
C1117       C  0.39571326  0.57432816  0.89241213     0.01100
C1118       C  0.39665769  0.58750881  0.85168448     0.03900
C1119       C  0.38280487  0.57061880  0.82046756    -0.12100
C1120       C  0.36349540  0.54602698  0.83017686     0.23200
C1121       C  0.35851356  0.53812668  0.87133684    -0.12700
C1122       C  0.37446920  0.55234779  0.90253829     0.04600
C1123       C  0.34568836  0.53440677  0.79721723     0.27100
C1124       C  0.32692259  0.55842874  0.78263970    -0.13400
C1125       C  0.31266277  0.55070346  0.74713614     0.05100
C1126       C  0.31626162  0.51803011  0.72704387    -0.09400
C1127       C  0.33449562  0.49346739  0.74234723     0.06000
C1128       C  0.34933385  0.50176885  0.77733550    -0.13700
Br1129     Br  0.32908465  0.50920343  0.88449356    -0.05800
Br1130     Br  0.41030391  0.63416549  0.83920833    -0.00200
Br1131     Br  0.29019340  0.58679416  0.72417516     0.00300
Br1132     Br  0.37524905  0.46925507  0.79736730    -0.04100
Br1133     Br  0.36373553  0.54742910  0.95818393     0.00400
Br1134     Br  0.38947147  0.58272994  0.76415015    -0.03400
Br1135     Br  0.32169936  0.60292016  0.81043989    -0.04300
Br1136     Br  0.33937982  0.44880274  0.71498534    -0.00300
loop_ 
_geom_bond_atom_site_label_1 
_geom_bond_atom_site_label_2 
_geom_bond_distance 
_geom_bond_site_symmetry_2 
_ccdc_geom_bond_type 
O1           Cu9   2.088       .  S
O1           C11   1.286       .  A
O2           Cu9   2.059       .  S
O2           C12   1.285       .  A
O3           Cu9   2.000       .  S
O3           C13   1.273       .  A
O4           Cu9   1.992       .  S
O4           C14   1.278       .  A
O5          Cu10   2.055       .  S
O5           C14   1.283       .  A
O6          Cu10   2.030       .  S
O6           C13   1.284       .  A
O7          Cu10   1.967       .  S
O7           C12   1.271       .  A
O8          Cu10   2.061       .  S
O8           C11   1.284       .  A
Cu9         Cu10   2.365       .  S
C11          C25   1.520       .  S
C12         C314   1.469       .  S
C13         C215   1.484       .  S
C14         C203   1.505       .  S
O15         Cu23   2.047       .  S
O15          C25   1.281       .  A
O16         Cu23   1.985       .  S
O16          C26   1.274       .  A
O17         Cu23   2.027       .  S
O17          C27   1.284       .  A
O18         Cu23   2.034       .  S
O18          C28   1.280       .  A
O19         Cu24   2.015       .  S
O19          C28   1.279       .  A
O20         Cu24   2.035       .  S
O20          C27   1.279       .  A
O21         Cu24   2.032       .  S
O21          C26   1.280       .  A
O22         Cu24   2.102       .  S
O22          C25   1.289       .  A
Cu23        Cu24   2.367       .  S
C26         C438   1.464       .  S
C27          C48   1.503       .  S
C28          C36   1.491   1_554  S
C29          C30   1.536       .  S
C29          C35   1.545       .  S
C29          C33   1.535       .  S
C29        C1117   1.544       .  S
C30          H37   1.086       .  S
C30          C31   1.375       .  D
C31        C1106   1.518       .  S
C31          C32   1.553       .  S
C32          C36   1.537       .  S
C32          C34   1.542       .  S
C32          H38   1.102       .  S
C33          H39   1.085       .  S
C33          C34   1.353       .  D
C34        C1077   1.465       .  S
C35          H40   1.085       .  S
C35          C36   1.371       .  D
C41          C42   1.549       .  S
C41          C47   1.530       .  S
C41          C45   1.534       .  S
C41        C1066   1.551       .  S
C42          H49   1.080       .  S
C42          C43   1.371       .  D
C43        C1037   1.502       .  S
C43          C44   1.550       .  S
C44          C48   1.550       .  S
C44          C46   1.558       .  S
C44          H50   1.105       .  S
C45          H51   1.090       .  S
C45          C46   1.364       .  D
C46        C1017   1.505       .  S
C47          H52   1.087       .  S
C47          C48   1.361       .  D
N53          N54   1.320       .  A
N53          C57   1.344       .  A
N53         Cu61   2.064       .  S
N54          C55   1.342       .  A
N54         Cu60   2.065       .  S
C55          C56   1.383       .  A
C55          H58   1.082       .  S
C56        C1126   1.474       .  S
C56          C57   1.383       .  A
C57          H59   1.082       .  S
Cu60         N63   2.068       .  S
Cu61         N71   2.064       .  S
Cu62         N64   2.079       .  S
Cu62         N70   2.081       .  S
N63          N64   1.322       .  A
N63          C67   1.340       .  A
N64          C65   1.349       .  A
C65          C66   1.385       .  A
C65          H68   1.082       .  S
C66         C261   1.467       .  S
C66          C67   1.381       .  A
C67          H69   1.082       .  S
N70          N71   1.323       .  A
N70          C74   1.346       .  A
N71          C72   1.342       .  A
C72          C73   1.380       .  A
C72          H75   1.082       .  S
C73        C1057   1.478       .  S
C73          C74   1.384       .  A
C74          H76   1.078       .  S
C77          C78   1.541       .  S
C77          C83   1.537       .  S
C77          C81   1.543       .  S
C77        C1006   1.549       .  S
C78          H85   1.085       .  S
C78          C79   1.372       .  D
C79         C149   1.489       .  S
C79          C80   1.544       .  S
C80          C84   1.551       .  S
C80          C82   1.534       .  S
C80          H86   1.111       .  S
C81          H87   1.085       .  S
C81          C82   1.358       .  D
C82         C986   1.468       .  S
C83          H88   1.084       .  S
C83          C84   1.367       .  D
C84        C1097   1.509       .  S
C89          C90   1.540       .  S
C89          C95   1.543       .  S
C89          C93   1.525       .  S
C89         C957   1.549       .  S
C90          H97   1.085       .  S
C90          C91   1.369       .  D
C91         C150   1.489       .  S
C91          C92   1.545       .  S
C92          C96   1.564       .  S
C92          C94   1.538       .  S
C92          H98   1.098       .  S
C93          H99   1.087       .  S
C93          C94   1.350       .  D
C94         C946   1.470       .  S
C95         H100   1.072       .  S
C95          C96   1.379       .  D
C96        C1046   1.529       .  S
N101        N102   1.321       .  A
N101        C105   1.343       .  A
N101       Cu109   2.062       .  S
N102        C103   1.345       .  A
N102       Cu108   2.074       .  S
C103        C104   1.383       .  A
C103        H106   1.081       .  S
C104        C966   1.477       .  S
C104        C105   1.382       .  A
C105        H107   1.082       .  S
Cu108       N111   2.075       .  S
Cu109       N119   2.063       .  S
Cu110       N112   2.082       .  S
Cu110       N118   2.083       .  S
N111        N112   1.322       .  A
N111        C115   1.343       .  A
N112        C113   1.349       .  A
C113        C114   1.383       .  A
C113        H116   1.080       .  S
C114        C383   1.468       .  S
C114        C115   1.383       .  A
C115        H117   1.082       .  S
N118        N119   1.323       .  A
N118        C122   1.345       .  A
N119        C120   1.344       .  A
C120        C121   1.380       .  A
C120        H123   1.082       .  S
C121        C997   1.476       .  S
C121        C122   1.382       .  A
C122        H124   1.080       .  S
O125       Cu133   2.041       .  S
O125        C135   1.280   1_545  A
O126       Cu133   1.983       .  S
O126        C136   1.273   1_545  A
O127       Cu133   2.031   1_566  S
O127        C137   1.287   1_556  A
O128       Cu133   2.048       .  S
O128        C138   1.280       .  A
O129       Cu134   1.989   1_545  S
O129        C138   1.279       .  A
O130       Cu134   2.015       .  S
O130        C137   1.273       .  A
O131       Cu134   2.040       .  S
O131        C136   1.282       .  A
O132       Cu134   2.071       .  S
O132        C135   1.286       .  A
Cu133      Cu134   2.364   1_545  S
C135        C151   1.505   1_565  S
C136        C362   1.468       .  S
C137        C160   1.494   1_554  S
C138        C172   1.494       .  S
O139       Cu147   2.002   1_556  S
O139        C149   1.279   1_545  A
O140       Cu147   2.014       .  S
O140        C150   1.277       .  A
O141       Cu147   2.051       .  S
O141        C151   1.283       .  A
O142       Cu147   1.994       .  S
O142        C152   1.276       .  A
O143       Cu148   2.007       .  S
O143        C152   1.277   1_565  A
O144       Cu148   2.061       .  S
O144        C151   1.283   1_565  A
O145       Cu148   2.013   1_545  S
O145        C150   1.282       .  A
O146       Cu148   2.032       .  S
O146        C149   1.279   1_554  A
Cu147      Cu148   2.370   1_545  S
C152        C486   1.458       .  S
C153        C154   1.543       .  S
C153        C159   1.509       .  S
C153        C157   1.534       .  S
C153        C917   1.532       .  S
C154        H161   1.084       .  S
C154        C155   1.369       .  D
C155        C906   1.507   1_556  S
C155        C156   1.556       .  S
C156        C160   1.563       .  S
C156        C158   1.554       .  S
C156        H162   1.102   1_556  S
C157        H163   1.076       .  S
C157        C158   1.370       .  D
C158        C977   1.502       .  S
C159        H164   1.088       .  S
C159        C160   1.352       .  D
C165        C166   1.547       .  S
C165        C171   1.507       .  S
C165        C169   1.549       .  S
C165        C886   1.540       .  S
C166        H173   1.077       .  S
C166        C167   1.371       .  D
C167        C857   1.518       .  S
C167        C168   1.551       .  S
C168        C172   1.562       .  S
C168        C170   1.534       .  S
C168        H174   1.104       .  S
C169        H175   1.084       .  S
C169        C170   1.367       .  D
C170        C937   1.491       .  S
C171        H176   1.087       .  S
C171        C172   1.360       .  D
N177        N178   1.322       .  A
N177        C181   1.341       .  A
N177       Cu185   2.048       .  S
N178        C179   1.345       .  A
N178       Cu184   2.081       .  S
C179        C180   1.384       .  A
C179        H182   1.082       .  S
C180        C877   1.469       .  S
C180        C181   1.377       .  A
C181        H183   1.082       .  S
Cu184       N187   2.081       .  S
Cu185       N195   2.045       .  S
Cu186       N188   2.053       .  S
Cu186       N194   2.053       .  S
N187        N188   1.322       .  A
N187        C191   1.346       .  A
N188        C189   1.340       .  A
C189        C190   1.373       .  A
C189        H192   1.081       .  S
C190        C398   1.461       .  S
C190        C191   1.385       .  A
C191        H193   1.082       .  S
N194        N195   1.319       .  A
N194        C198   1.345       .  A
N195        C196   1.337       .  A
C196        C197   1.377       .  A
C196        H199   1.082       .  S
C197        C926   1.461       .  S
C197        C198   1.380       .  A
C198        H200   1.082       .  S
C201        C202   1.519       .  S
C201        C207   1.553       .  S
C201        C205   1.530       .  S
C201        C837   1.554       .  S
C202        H209   1.087       .  S
C202        C203   1.364   1_556  D
C203        C204   1.558       .  S
C204        C208   1.554       .  S
C204        C206   1.550   1_554  S
C204        H210   1.100       .  S
C205        H211   1.078       .  S
C205        C206   1.360       .  D
C206       C1086   1.505       .  S
C207        H212   1.074       .  S
C207        C208   1.378   1_556  D
C208        C897   1.515       .  S
C213        C214   1.548       .  S
C213        C219   1.535       .  S
C213        C217   1.536       .  S
C213        C817   1.542       .  S
C214        H221   1.085       .  S
C214        C215   1.369       .  D
C215        C216   1.535       .  S
C216        C220   1.555       .  S
C216        C218   1.547       .  S
C216        H222   1.108       .  S
C217        H223   1.085       .  S
C217        C218   1.355       .  D
C218       C1026   1.470       .  S
C219        H224   1.086       .  S
C219        C220   1.371       .  D
C220        C866   1.516       .  S
N225        N226   1.320       .  A
N225        C229   1.342       .  A
N225       Cu233   2.052       .  S
N226        C227   1.345       .  A
N226       Cu232   2.071       .  S
C227        C228   1.383       .  A
C227        H230   1.082       .  S
C228        C846   1.469       .  S
C228        C229   1.379       .  A
C229        H231   1.082       .  S
Cu232       N235   2.072       .  S
Cu233       N243   2.053       .  S
Cu234       N236   2.095       .  S
Cu234       N242   2.096       .  S
N235        N236   1.323       .  A
N235        C239   1.341       .  A
N236        C237   1.351       .  A
C237        C238   1.388       .  A
C237        H240   1.082       .  S
C238        C276   1.473       .  S
C238        C239   1.378       .  A
C239        H241   1.080       .  S
N242        N243   1.323       .  A
N242        C246   1.349       .  A
N243        C244   1.341       .  A
C244        C245   1.377       .  A
C244        H247   1.082       .  S
C245        C826   1.475       .  S
C245        C246   1.387       .  A
C246        H248   1.079       .  S
O249       Cu257   1.981       .  S
O249        C259   1.276       .  A
O250       Cu257   2.010       .  S
O250        C260   1.275       .  A
O251       Cu257   2.039       .  S
O251        C261   1.282       .  A
O252       Cu257   2.086       .  S
O252        C262   1.288       .  A
O253       Cu258   2.054       .  S
O253        C262   1.281       .  A
O254       Cu258   1.979       .  S
O254        C261   1.273       .  A
O255       Cu258   2.029       .  S
O255        C260   1.284       .  A
O256       Cu258   2.030       .  S
O256        C259   1.279       .  A
Cu257      Cu258   2.369       .  S
C259        C420   1.479       .  S
C260        C408   1.490       .  S
C262        C275   1.516       .  S
O263       Cu271   2.042       .  S
O263        C273   1.282       .  A
O264       Cu271   2.051       .  S
O264        C274   1.281       .  A
O265       Cu271   2.074       .  S
O265        C275   1.286   1_655  A
O266       Cu271   2.000       .  S
O266        C276   1.276       .  A
O267       Cu272   2.034       .  S
O267        C276   1.280       .  A
O268       Cu272   2.067       .  S
O268        C275   1.283   1_655  A
O269       Cu272   2.010       .  S
O269        C274   1.281       .  A
O270       Cu272   2.019       .  S
O270        C273   1.279       .  A
Cu271      Cu272   2.365       .  S
C273        C279   1.497       .  S
C274        C291   1.501       .  S
C277        C278   1.562       .  S
C277        C283   1.539       .  S
C277        C281   1.523       .  S
C277        C806   1.553       .  S
C278        H285   1.077       .  S
C278        C279   1.376       .  D
C279        C280   1.537       .  S
C280        C284   1.557       .  S
C280        C282   1.550       .  S
C280        H286   1.095       .  S
C281        H287   1.087       .  S
C281        C282   1.343       .  D
C282        C757   1.481       .  S
C283        H288   1.079       .  S
C283        C284   1.379       .  D
C284        C786   1.526       .  S
C289        C290   1.525       .  S
C289        C295   1.547       .  S
C289        C293   1.530       .  S
C289        C737   1.557       .  S
C290        H297   1.077       .  S
C290        C291   1.363       .  D
C291        C292   1.554       .  S
C292        C296   1.557       .  S
C292        C294   1.556       .  S
C292        H298   1.110       .  S
C293        H299   1.086       .  S
C293        C294   1.354       .  D
C294        C706   1.495       .  S
C295        H300   1.073       .  S
C295        C296   1.370       .  D
C296        C726   1.500       .  S
N301        N302   1.322       .  A
N301        C305   1.345       .  A
N301       Cu309   2.072       .  S
N302        C303   1.343       .  A
N302       Cu308   2.066       .  S
C303        C304   1.380       .  A
C303        H306   1.082       .  S
C304        C746   1.475       .  S
C304        C305   1.384       .  A
C305        H307   1.082       .  S
Cu308       N311   2.067       .  S
Cu309       N319   2.073       .  S
Cu310       N312   2.086       .  S
Cu310       N318   2.087       .  S
N311        N312   1.320       .  A
N311        C315   1.341       .  A
N312        C313   1.352       .  A
C313        C314   1.382       .  A
C313        H316   1.079       .  S
C314        C315   1.383       .  A
C315        H317   1.082       .  S
N318        N319   1.323       .  A
N318        C322   1.344   1_554  A
N319        C320   1.347       .  A
C320        C321   1.385   1_554  A
C320        H323   1.082       .  S
C321        C797   1.483       .  S
C321        C322   1.381       .  A
C322        H324   1.078       .  S
C325        C326   1.536       .  S
C325        C331   1.523   1_565  S
C325        C329   1.549       .  S
C325        C686   1.558   1_565  S
C326        H333   1.085       .  S
C326        C327   1.360       .  D
C327        C777   1.513       .  S
C327        C328   1.548       .  S
C328        C332   1.567   1_565  S
C328        C330   1.530       .  S
C328        H334   1.099       .  S
C329        H335   1.078       .  S
C329        C330   1.375       .  D
C330        C657   1.495       .  S
C331        H336   1.086       .  S
C331        C332   1.368       .  D
C332        C400   1.500       .  S
C337        C338   1.540       .  S
C337        C343   1.547       .  S
C337        C341   1.537       .  S
C337        C646   1.548       .  S
C338        H345   1.085       .  S
C338        C339   1.375       .  D
C339        C717   1.517       .  S
C339        C340   1.551       .  S
C340        C344   1.533       .  S
C340        C342   1.548       .  S
C340        H346   1.108       .  S
C341        H347   1.087       .  S
C341        C342   1.358       .  D
C342        C617   1.476       .  S
C343        H348   1.081       .  S
C343        C344   1.366       .  D
C344        C399   1.484       .  S
N349        N350   1.322   1_554  A
N349        C353   1.346   1_554  A
N349       Cu357   2.069       .  S
N350        C351   1.345       .  A
N350       Cu356   2.084   1_556  S
C351        C352   1.388       .  A
C351        H354   1.082       .  S
C352        C677   1.483       .  S
C352        C353   1.383       .  A
C353        H355   1.082   1_556  S
Cu356       N359   2.086       .  S
Cu357       N367   2.070       .  S
Cu358       N360   2.071       .  S
Cu358       N366   2.072       .  S
N359        N360   1.323       .  A
N359        C363   1.344       .  A
N360        C361   1.347   1_545  A
C361        C362   1.381       .  A
C361        H364   1.082       .  S
C362        C363   1.385   1_565  A
C363        H365   1.082   1_554  S
N366        N367   1.322       .  A
N366        C370   1.345       .  A
N367        C368   1.343       .  A
C368        C369   1.382       .  A
C368        H371   1.082       .  S
C369        C637   1.478       .  S
C369        C370   1.382       .  A
C370        H372   1.081       .  S
O373       Cu381   2.045       .  S
O373        C383   1.282       .  A
O374       Cu381   2.081       .  S
O374        C384   1.287       .  A
O375       Cu381   1.999       .  S
O375        C385   1.278       .  A
O376       Cu381   2.025       .  S
O376        C386   1.274       .  A
O377       Cu382   2.044       .  S
O377        C386   1.286       .  A
O378       Cu382   2.056       .  S
O378        C385   1.283       .  A
O379       Cu382   2.051       .  S
O379        C384   1.281       .  A
O380       Cu382   1.983       .  S
O380        C383   1.273       .  A
Cu381      Cu382   2.364       .  S
C384        C397   1.513   1_455  S
C385        C451   1.499       .  S
C386        C463   1.504       .  S
O387       Cu395   2.068       .  S
O387        C397   1.285       .  A
O388       Cu395   1.983       .  S
O388        C398   1.273       .  A
O389       Cu395   2.020       .  S
O389        C399   1.282       .  A
O390       Cu395   2.040       .  S
O390        C400   1.280       .  A
O391       Cu396   2.003       .  S
O391        C400   1.281       .  A
O392       Cu396   2.007       .  S
O392        C399   1.274       .  A
O393       Cu396   2.023       .  S
O393        C398   1.281       .  A
O394       Cu396   2.066       .  S
O394        C397   1.283       .  A
Cu395      Cu396   2.369       .  S
C401        C402   1.534       .  S
C401        C407   1.547       .  S
C401        C405   1.535       .  S
C401        C606   1.541       .  S
C402        H409   1.085       .  S
C402        C403   1.374       .  D
C403        C577   1.520       .  S
C403        C404   1.555       .  S
C404        C408   1.535       .  S
C404        C406   1.547       .  S
C404        H410   1.105       .  S
C405        H411   1.086       .  S
C405        C406   1.357       .  D
C406        C766   1.467       .  S
C407        H412   1.084       .  S
C407        C408   1.365       .  D
C413        C414   1.548       .  S
C413        C419   1.530       .  S
C413        C417   1.531       .  S
C413        C566   1.540       .  S
C414        H421   1.082       .  S
C414        C415   1.375       .  D
C415        C546   1.507       .  S
C415        C416   1.546       .  S
C416        C420   1.535       .  S
C416        C418   1.548       .  S
C416        H422   1.108       .  S
C417        H423   1.087       .  S
C417        C418   1.352       .  D
C418        C697   1.469       .  S
C419        H424   1.086       .  S
C419        C420   1.366       .  D
N425        N426   1.321       .  A
N425        C429   1.346       .  A
N425       Cu433   2.074       .  S
N426        C427   1.344       .  A
N426       Cu432   2.067       .  S
C427        C428   1.381       .  A
C427        H430   1.080       .  S
C428        C557   1.479       .  S
C428        C429   1.385       .  A
C429        H431   1.082       .  S
Cu432       N435   2.067       .  S
Cu433       N443   2.076       .  S
Cu434       N436   2.075       .  S
Cu434       N442   2.077   1_554  S
N435        N436   1.322       .  A
N435        C439   1.341       .  A
N436        C437   1.348       .  A
C437        C438   1.382       .  A
C437        H440   1.081       .  S
C438        C439   1.380       .  A
C439        H441   1.082       .  S
N442        N443   1.324   1_556  A
N442        C446   1.346       .  A
N443        C444   1.344   1_554  A
C444        C445   1.382       .  A
C444        H447   1.082   1_556  S
C445        C597   1.478       .  S
C445        C446   1.383       .  A
C446        H448   1.082       .  S
C449        C450   1.527       .  S
C449        C455   1.547       .  S
C449        C453   1.543       .  S
C449        C517   1.541       .  S
C450        H457   1.086       .  S
C450        C451   1.371       .  D
C451        C452   1.554       .  S
C452        C456   1.553   1_545  S
C452        C454   1.539   1_545  S
C452        H458   1.108   1_545  S
C453        H459   1.086       .  S
C453        C454   1.352   1_545  D
C454        C666   1.472       .  S
C455        H460   1.076       .  S
C455        C456   1.369   1_545  D
C456        C586   1.510       .  S
C461        C462   1.528       .  S
C461        C467   1.546       .  S
C461        C465   1.540       .  S
C461        C506   1.544       .  S
C462        H469   1.087       .  S
C462        C463   1.363       .  D
C463        C464   1.562       .  S
C464        C468   1.556       .  S
C464        C466   1.559       .  S
C464        H470   1.110       .  S
C465        H471   1.083       .  S
C465        C466   1.357       .  D
C466        C626   1.496       .  S
C467        H472   1.078       .  S
C467        C468   1.371       .  D
C468        C537   1.510       .  S
N473        N474   1.320   1_554  A
N473        C477   1.341   1_554  A
N473       Cu481   2.050       .  S
N474        C475   1.343       .  A
N474       Cu480   2.057   1_556  S
C475        C476   1.379       .  A
C475        H478   1.081       .  S
C476        C526   1.462       .  S
C476        C477   1.377       .  A
C477        H479   1.082   1_556  S
Cu480       N483   2.057       .  S
Cu481       N491   2.051       .  S
Cu482       N484   2.070       .  S
Cu482       N490   2.070       .  S
N483        N484   1.322       .  A
N483        C487   1.340       .  A
N484        C485   1.345       .  A
C485        C486   1.382       .  A
C485        H488   1.082       .  S
C486        C487   1.377       .  A
C487        H489   1.082       .  S
N490        N491   1.322       .  A
N490        C494   1.345       .  A
N491        C492   1.339       .  A
C492        C493   1.377       .  A
C492        H495   1.082       .  S
C493        C497   1.468       .  S
C493        C494   1.382       .  A
C494        H496   1.080       .  S
C497        C498   1.407       .  A
C497        C502   1.410       .  A
C498        C499   1.405       .  A
C498       Br510   1.929       .  S
C499        C500   1.411       .  A
C499       Br514   1.931       .  S
C500        C503   1.479       .  S
C500        C501   1.408       .  A
C501        C502   1.403       .  A
C501       Br509   1.930       .  S
C502       Br513   1.932       .  S
C503        C504   1.402       .  A
C503        C508   1.407       .  A
C504        C505   1.396       .  A
C504       Br515   1.935       .  S
C505        C506   1.422       .  A
C505       Br511   1.933       .  S
C506        C507   1.423       .  A
C507        C508   1.414       .  A
C507       Br516   1.928       .  S
C508       Br512   1.930       .  S
C517        C518   1.417       .  A
C517        C522   1.420       .  A
C518        C519   1.408       .  A
C518       Br530   1.925       .  S
C519        C520   1.403       .  A
C519       Br534   1.924       .  S
C520        C523   1.474       .  S
C520        C521   1.402       .  A
C521        C522   1.402       .  A
C521       Br529   1.929       .  S
C522       Br533   1.927       .  S
C523        C524   1.410       .  A
C523        C528   1.408       .  A
C524        C525   1.403       .  A
C524       Br535   1.932       .  S
C525        C526   1.408       .  A
C525       Br531   1.931       .  S
C526        C527   1.405       .  A
C527        C528   1.403       .  A
C527       Br536   1.928       .  S
C528       Br532   1.929       .  S
C537        C538   1.414       .  A
C537        C542   1.425       .  A
C538        C539   1.413       .  A
C538       Br550   1.919       .  S
C539        C540   1.407       .  A
C539       Br554   1.929       .  S
C540        C543   1.496       .  S
C540        C541   1.409       .  A
C541        C542   1.414       .  A
C541       Br549   1.934       .  S
C542       Br553   1.936       .  S
C543        C544   1.409       .  A
C543        C548   1.407       .  A
C544        C545   1.410       .  A
C544       Br555   1.928       .  S
C545        C546   1.419       .  A
C545       Br551   1.921       .  S
C546        C547   1.416       .  A
C547        C548   1.411       .  A
C547       Br556   1.929       .  S
C548       Br552   1.926       .  S
C557        C558   1.410       .  A
C557        C562   1.411       .  A
C558        C559   1.408       .  A
C558       Br570   1.929       .  S
C559        C560   1.410       .  A
C559       Br574   1.928       .  S
C560        C563   1.485       .  S
C560        C561   1.410       .  A
C561        C562   1.407       .  A
C561       Br569   1.933       .  S
C562       Br573   1.930       .  S
C563        C564   1.408       .  A
C563        C568   1.408       .  A
C564        C565   1.405       .  A
C564       Br575   1.924       .  S
C565        C566   1.412       .  A
C565       Br571   1.928       .  S
C566        C567   1.423       .  A
C567        C568   1.407       .  A
C567       Br576   1.936       .  S
C568       Br572   1.932       .  S
C577        C578   1.426       .  A
C577        C582   1.426       .  A
C578        C579   1.411       .  A
C578       Br590   1.927       .  S
C579        C580   1.405       .  A
C579       Br594   1.930       .  S
C580        C583   1.497       .  S
C580        C581   1.405       .  A
C581        C582   1.415       .  A
C581       Br589   1.929       .  S
C582       Br593   1.933       .  S
C583        C584   1.409       .  A
C583        C588   1.408       .  A
C584        C585   1.413       .  A
C584       Br595   1.927       .  S
C585        C586   1.414       .  A
C585       Br591   1.926       .  S
C586        C587   1.428       .  A
C587        C588   1.411       .  A
C587       Br596   1.940       .  S
C588       Br592   1.937       .  S
C597        C598   1.411       .  A
C597        C602   1.413       .  A
C598        C599   1.406       .  A
C598       Br610   1.930       .  S
C599        C600   1.408       .  A
C599       Br614   1.931       .  S
C600        C603   1.481       .  S
C600        C601   1.408       .  A
C601        C602   1.408       .  A
C601       Br609   1.929       .  S
C602       Br613   1.931       .  S
C603        C604   1.406       .  A
C603        C608   1.405       .  A
C604        C605   1.409       .  A
C604       Br615   1.927       .  S
C605        C606   1.419       .  A
C605       Br611   1.932       .  S
C606        C607   1.420       .  A
C607        C608   1.405       .  A
C607       Br616   1.932       .  S
C608       Br612   1.931       .  S
C617        C618   1.403       .  A
C617        C622   1.415       .  A
C618        C619   1.389   1_655  A
C618       Br630   1.915       .  S
C619        C620   1.408       .  A
C619       Br634   1.937       .  S
C620        C623   1.463       .  S
C620        C621   1.403   1_455  A
C621        C622   1.405       .  A
C621       Br629   1.928       .  S
C622       Br633   1.922       .  S
C623        C624   1.402       .  A
C623        C628   1.403       .  A
C624        C625   1.395       .  A
C624       Br635   1.926       .  S
C625        C626   1.402       .  A
C625       Br631   1.901       .  S
C626        C627   1.419       .  A
C627        C628   1.404       .  A
C627       Br636   1.920       .  S
C628       Br632   1.929       .  S
C637        C638   1.410       .  A
C637        C642   1.413       .  A
C638        C639   1.405       .  A
C638       Br650   1.931       .  S
C639        C640   1.409       .  A
C639       Br654   1.931       .  S
C640        C643   1.483       .  S
C640        C641   1.409       .  A
C641        C642   1.409       .  A
C641       Br649   1.928       .  S
C642       Br653   1.931       .  S
C643        C644   1.406       .  A
C643        C648   1.405       .  A
C644        C645   1.411       .  A
C644       Br655   1.928       .  S
C645        C646   1.419       .  A
C645       Br651   1.928       .  S
C646        C647   1.420       .  A
C647        C648   1.405       .  A
C647       Br656   1.926       .  S
C648       Br652   1.931       .  S
C657        C658   1.417       .  A
C657        C662   1.418       .  A
C658        C659   1.401       .  A
C658       Br670   1.919       .  S
C659        C660   1.397   1_655  A
C659       Br674   1.925   1_655  S
C660        C663   1.468       .  S
C660        C661   1.409       .  A
C661        C662   1.401   1_455  A
C661       Br669   1.933       .  S
C662       Br673   1.928       .  S
C663        C664   1.409       .  A
C663        C668   1.399       .  A
C664        C665   1.398       .  A
C664       Br675   1.930       .  S
C665        C666   1.406       .  A
C665       Br671   1.926   1_565  S
C666        C667   1.410       .  A
C667        C668   1.403       .  A
C667       Br676   1.910       .  S
C668       Br672   1.924       .  S
C677        C678   1.411       .  A
C677        C682   1.414       .  A
C678        C679   1.402       .  A
C678       Br690   1.929   1_545  S
C679        C680   1.410       .  A
C679       Br694   1.935   1_545  S
C680        C683   1.486       .  S
C680        C681   1.409       .  A
C681        C682   1.412       .  A
C681       Br689   1.928       .  S
C682       Br693   1.928       .  S
C683        C684   1.401       .  A
C683        C688   1.400       .  A
C684        C685   1.408   1_545  A
C684       Br695   1.936       .  S
C685        C686   1.432   1_565  A
C685       Br691   1.930       .  S
C686        C687   1.432       .  A
C687        C688   1.411       .  A
C687       Br696   1.928       .  S
C688       Br692   1.935       .  S
C697        C698   1.416       .  A
C697        C702   1.395       .  A
C698        C699   1.408       .  A
C698       Br710   1.930       .  S
C699        C700   1.407       .  A
C699       Br714   1.928       .  S
C700        C703   1.472   1_455  S
C700        C701   1.416       .  A
C701        C702   1.386       .  A
C701       Br709   1.931   1_455  S
C702       Br713   1.923       .  S
C703        C704   1.400       .  A
C703        C708   1.400       .  A
C704        C705   1.407       .  A
C704       Br715   1.928       .  S
C705        C706   1.428       .  A
C705       Br711   1.933       .  S
C706        C707   1.410       .  A
C707        C708   1.398       .  A
C707       Br716   1.905       .  S
C708       Br712   1.928   1_655  S
C717        C718   1.425       .  A
C717        C722   1.423       .  A
C718        C719   1.412       .  A
C718       Br730   1.921       .  S
C719        C720   1.405       .  A
C719       Br734   1.932       .  S
C720        C723   1.497       .  S
C720        C721   1.406       .  A
C721        C722   1.415       .  A
C721       Br729   1.927       .  S
C722       Br733   1.931       .  S
C723        C724   1.411       .  A
C723        C728   1.409       .  A
C724        C725   1.416       .  A
C724       Br735   1.925       .  S
C725        C726   1.411       .  A
C725       Br731   1.924       .  S
C726        C727   1.420       .  A
C727        C728   1.409       .  A
C727       Br736   1.936       .  S
C728       Br732   1.935       .  S
C737        C738   1.427       .  A
C737        C742   1.446       .  A
C738        C739   1.406       .  A
C738       Br750   1.922       .  S
C739        C740   1.398       .  A
C739       Br754   1.932       .  S
C740        C743   1.479       .  S
C740        C741   1.395       .  A
C741        C742   1.409       .  A
C741       Br749   1.939       .  S
C742       Br753   1.939       .  S
C743        C744   1.407       .  A
C743        C748   1.407       .  A
C744        C745   1.405       .  A
C744       Br755   1.932       .  S
C745        C746   1.413       .  A
C745       Br751   1.931       .  S
C746        C747   1.410       .  A
C747        C748   1.405       .  A
C747       Br756   1.929       .  S
C748       Br752   1.930       .  S
C757        C758   1.402       .  A
C757        C762   1.419       .  A
C758        C759   1.399       .  A
C758       Br770   1.913       .  S
C759        C760   1.406   1_655  A
C759       Br774   1.926   1_655  S
C760        C763   1.472       .  S
C760        C761   1.405   1_455  A
C761        C762   1.404       .  A
C761       Br769   1.928   1_655  S
C762       Br773   1.933       .  S
C763        C764   1.415       .  A
C763        C768   1.408       .  A
C764        C765   1.388       .  A
C764       Br775   1.936       .  S
C765        C766   1.397       .  A
C765       Br771   1.925       .  S
C766        C767   1.411       .  A
C767        C768   1.408       .  A
C767       Br776   1.927       .  S
C768       Br772   1.927       .  S
C777        C778   1.418       .  A
C777        C782   1.433       .  A
C778        C779   1.414       .  A
C778       Br790   1.930       .  S
C779        C780   1.407       .  A
C779       Br794   1.927       .  S
C780        C783   1.490       .  S
C780        C781   1.404       .  A
C781        C782   1.408       .  A
C781       Br789   1.938       .  S
C782       Br793   1.939       .  S
C783        C784   1.408       .  A
C783        C788   1.408       .  A
C784        C785   1.412       .  A
C784       Br795   1.925       .  S
C785        C786   1.420       .  A
C785       Br791   1.931       .  S
C786        C787   1.416       .  A
C787        C788   1.408       .  A
C787       Br796   1.926       .  S
C788       Br792   1.932       .  S
C797        C798   1.413       .  A
C797        C802   1.413       .  A
C798        C799   1.409       .  A
C798       Br810   1.930       .  S
C799        C800   1.410       .  A
C799       Br814   1.931       .  S
C800        C803   1.485       .  S
C800        C801   1.407       .  A
C801        C802   1.406       .  A
C801       Br809   1.931       .  S
C802       Br813   1.928       .  S
C803        C804   1.405       .  A
C803        C808   1.405       .  A
C804        C805   1.406       .  A
C804       Br815   1.935       .  S
C805        C806   1.429       .  A
C805       Br811   1.938       .  S
C806        C807   1.419       .  A
C807        C808   1.412       .  A
C807       Br816   1.916       .  S
C808       Br812   1.930       .  S
C817        C818   1.421       .  A
C817        C822   1.419       .  A
C818        C819   1.412       .  A
C818       Br830   1.930       .  S
C819        C820   1.408       .  A
C819       Br834   1.929       .  S
C820        C823   1.485       .  S
C820        C821   1.407       .  A
C821        C822   1.402       .  A
C821       Br829   1.933       .  S
C822       Br833   1.933       .  S
C823        C824   1.409       .  A
C823        C828   1.410       .  A
C824        C825   1.405       .  A
C824       Br835   1.930       .  S
C825        C826   1.411       .  A
C825       Br831   1.930       .  S
C826        C827   1.408       .  A
C827        C828   1.408       .  A
C827       Br836   1.928       .  S
C828       Br832   1.929       .  S
C837        C838   1.421       .  A
C837        C842   1.435       .  A
C838        C839   1.409       .  A
C838       Br850   1.913       .  S
C839        C840   1.402       .  A
C839       Br854   1.933       .  S
C840        C843   1.478       .  S
C840        C841   1.399       .  A
C841        C842   1.405       .  A
C841       Br849   1.934       .  S
C842       Br853   1.937       .  S
C843        C844   1.408       .  A
C843        C848   1.408       .  A
C844        C845   1.404       .  A
C844       Br855   1.931       .  S
C845        C846   1.410       .  A
C845       Br851   1.931       .  S
C846        C847   1.407       .  A
C847        C848   1.405       .  A
C847       Br856   1.928       .  S
C848       Br852   1.929       .  S
C857        C858   1.434       .  A
C857        C862   1.418       .  A
C858        C859   1.411       .  A
C858       Br870   1.937       .  S
C859        C860   1.405       .  A
C859       Br874   1.938       .  S
C860        C863   1.494       .  S
C860        C861   1.407       .  A
C861        C862   1.414       .  A
C861       Br869   1.926       .  S
C862       Br873   1.931       .  S
C863        C864   1.405       .  A
C863        C868   1.407       .  A
C864        C865   1.410       .  A
C864       Br875   1.935       .  S
C865        C866   1.419       .  A
C865       Br871   1.910       .  S
C866        C867   1.422       .  A
C867        C868   1.416       .  A
C867       Br876   1.930       .  S
C868       Br872   1.927       .  S
C877        C878   1.410       .  A
C877        C882   1.408   1_545  A
C878        C879   1.403       .  A
C878       Br890   1.931       .  S
C879        C880   1.408       .  A
C879       Br894   1.932       .  S
C880        C883   1.476       .  S
C880        C881   1.408   1_545  A
C881        C882   1.405       .  A
C881       Br889   1.928       .  S
C882       Br893   1.928       .  S
C883        C884   1.401       .  A
C883        C888   1.404       .  A
C884        C885   1.404       .  A
C884       Br895   1.929       .  S
C885        C886   1.425       .  A
C885       Br891   1.936       .  S
C886        C887   1.420       .  A
C887        C888   1.408       .  A
C887       Br896   1.930       .  S
C888       Br892   1.929       .  S
C897        C898   1.428       .  A
C897        C902   1.414       .  A
C898        C899   1.412       .  A
C898       Br910   1.931   1_554  S
C899        C900   1.407       .  A
C899       Br914   1.934       .  S
C900        C903   1.510       .  S
C900        C901   1.415       .  A
C901        C902   1.417       .  A
C901       Br909   1.929       .  S
C902       Br913   1.928       .  S
C903        C904   1.417       .  A
C903        C908   1.420   1_554  A
C904        C905   1.421       .  A
C904       Br915   1.927       .  S
C905        C906   1.412       .  A
C905       Br911   1.926       .  S
C906        C907   1.416   1_554  A
C907        C908   1.404       .  A
C907       Br916   1.929       .  S
C908       Br912   1.942       .  S
C917        C918   1.423       .  A
C917        C922   1.429       .  A
C918        C919   1.404       .  A
C918       Br930   1.934       .  S
C919        C920   1.401       .  A
C919       Br934   1.928       .  S
C920        C923   1.468       .  S
C920        C921   1.400       .  A
C921        C922   1.399       .  A
C921       Br929   1.935       .  S
C922       Br933   1.943       .  S
C923        C924   1.408   1_565  A
C923        C928   1.405       .  A
C924        C925   1.402       .  A
C924       Br935   1.930       .  S
C925        C926   1.405       .  A
C925       Br931   1.928       .  S
C926        C927   1.409   1_545  A
C927        C928   1.400       .  A
C927       Br936   1.931       .  S
C928       Br932   1.931       .  S
C937        C938   1.428       .  A
C937        C942   1.418       .  A
C938        C939   1.409       .  A
C938       Br950   1.926       .  S
C939        C940   1.399       .  A
C939       Br954   1.925       .  S
C940        C943   1.474       .  S
C940        C941   1.401       .  A
C941        C942   1.393       .  A
C941       Br949   1.929       .  S
C942       Br953   1.930       .  S
C943        C944   1.412       .  A
C943        C948   1.402       .  A
C944        C945   1.398       .  A
C944       Br955   1.933       .  S
C945        C946   1.407       .  A
C945       Br951   1.927       .  S
C946        C947   1.406       .  A
C947        C948   1.404       .  A
C947       Br956   1.914       .  S
C948       Br952   1.916       .  S
C957        C958   1.436       .  A
C957        C962   1.435       .  A
C958        C959   1.409       .  A
C958       Br970   1.936       .  S
C959        C960   1.399       .  A
C959       Br974   1.937   1_545  S
C960        C963   1.482       .  S
C960        C961   1.401       .  A
C961        C962   1.407       .  A
C961       Br969   1.938       .  S
C962       Br973   1.941       .  S
C963        C964   1.407       .  A
C963        C968   1.410       .  A
C964        C965   1.408       .  A
C964       Br975   1.927   1_545  S
C965        C966   1.411       .  A
C965       Br971   1.928   1_545  S
C966        C967   1.412       .  A
C967        C968   1.403       .  A
C967       Br976   1.932       .  S
C968       Br972   1.935       .  S
C977        C978   1.417       .  A
C977        C982   1.403       .  A
C978        C979   1.399       .  A
C978       Br990   1.928       .  S
C979        C980   1.402       .  A
C979       Br994   1.925       .  S
C980        C983   1.459       .  S
C980        C981   1.409       .  A
C981        C982   1.397       .  A
C981       Br989   1.925       .  S
C982       Br993   1.925       .  S
C983        C984   1.407       .  A
C983        C988   1.401       .  A
C984        C985   1.397       .  A
C984       Br995   1.934       .  S
C985        C986   1.407       .  A
C985       Br991   1.925       .  S
C986        C987   1.409       .  A
C987        C988   1.400       .  A
C987       Br996   1.916       .  S
C988       Br992   1.929       .  S
C997        C998   1.409       .  A
C997       C1002   1.411       .  A
C998        C999   1.407       .  A
C998      Br1010   1.929       .  S
C999       C1000   1.409       .  A
C999      Br1014   1.928       .  S
C1000      C1003   1.486       .  S
C1000      C1001   1.411       .  A
C1001      C1002   1.408       .  A
C1001     Br1009   1.930   1_545  S
C1002     Br1013   1.931   1_545  S
C1003      C1004   1.404   1_545  A
C1003      C1008   1.405       .  A
C1004      C1005   1.405       .  A
C1004     Br1015   1.939       .  S
C1005      C1006   1.429       .  A
C1005     Br1011   1.935       .  S
C1006      C1007   1.426       .  A
C1007      C1008   1.413   1_565  A
C1007     Br1016   1.931       .  S
C1008     Br1012   1.930       .  S
C1017      C1018   1.422       .  A
C1017      C1022   1.403       .  A
C1018      C1019   1.405       .  A
C1018     Br1030   1.928       .  S
C1019      C1020   1.402       .  A
C1019     Br1034   1.927       .  S
C1020      C1023   1.463       .  S
C1020      C1021   1.404       .  A
C1021      C1022   1.390       .  A
C1021     Br1029   1.920       .  S
C1022     Br1033   1.918       .  S
C1023      C1024   1.406       .  A
C1023      C1028   1.405       .  A
C1024      C1025   1.395       .  A
C1024     Br1035   1.935       .  S
C1025      C1026   1.406       .  A
C1025     Br1031   1.923       .  S
C1026      C1027   1.411       .  A
C1027      C1028   1.404       .  A
C1027     Br1036   1.929       .  S
C1028     Br1032   1.927       .  S
C1037      C1038   1.419       .  A
C1037      C1042   1.410       .  A
C1038      C1039   1.412       .  A
C1038     Br1050   1.932       .  S
C1039      C1040   1.414       .  A
C1039     Br1054   1.933       .  S
C1040      C1043   1.504       .  S
C1040      C1041   1.414       .  A
C1041      C1042   1.416       .  A
C1041     Br1049   1.928       .  S
C1042     Br1053   1.926       .  S
C1043      C1044   1.415       .  A
C1043      C1048   1.411       .  A
C1044      C1045   1.411       .  A
C1044     Br1055   1.927       .  S
C1045      C1046   1.411       .  A
C1045     Br1051   1.925       .  S
C1046      C1047   1.421       .  A
C1047      C1048   1.415       .  A
C1047     Br1056   1.930       .  S
C1048     Br1052   1.928       .  S
C1057      C1058   1.409       .  A
C1057      C1062   1.412       .  A
C1058      C1059   1.408       .  A
C1058     Br1070   1.929       .  S
C1059      C1060   1.412       .  A
C1059     Br1074   1.930       .  S
C1060      C1063   1.487       .  S
C1060      C1061   1.409       .  A
C1061      C1062   1.406       .  A
C1061     Br1069   1.931       .  S
C1062     Br1073   1.932       .  S
C1063      C1064   1.407       .  A
C1063      C1068   1.405       .  A
C1064      C1065   1.413       .  A
C1064     Br1075   1.932       .  S
C1065      C1066   1.425       .  A
C1065     Br1071   1.929       .  S
C1066      C1067   1.431       .  A
C1067      C1068   1.404       .  A
C1067     Br1076   1.943       .  S
C1068     Br1072   1.938       .  S
C1077      C1078   1.414       .  A
C1077      C1082   1.401       .  A
C1078      C1079   1.401       .  A
C1078     Br1090   1.925       .  S
C1079      C1080   1.400       .  A
C1079     Br1094   1.929       .  S
C1080      C1083   1.463       .  S
C1080      C1081   1.411       .  A
C1081      C1082   1.397       .  A
C1081     Br1089   1.928       .  S
C1082     Br1093   1.930       .  S
C1083      C1084   1.399       .  A
C1083      C1088   1.403       .  A
C1084      C1085   1.399       .  A
C1084     Br1095   1.922       .  S
C1085      C1086   1.419       .  A
C1085     Br1091   1.928       .  S
C1086      C1087   1.408       .  A
C1087      C1088   1.395       .  A
C1087     Br1096   1.911   1_556  S
C1088     Br1092   1.917       .  S
C1097      C1098   1.414   1_556  A
C1097      C1102   1.425       .  A
C1098      C1099   1.413       .  A
C1098     Br1110   1.925       .  S
C1099      C1100   1.409   1_554  A
C1099     Br1114   1.928       .  S
C1100      C1103   1.493       .  S
C1100      C1101   1.406       .  A
C1101      C1102   1.410       .  A
C1101     Br1109   1.936       .  S
C1102     Br1113   1.930       .  S
C1103      C1104   1.404       .  A
C1103      C1108   1.408   1_556  A
C1104      C1105   1.409       .  A
C1104     Br1115   1.932       .  S
C1105      C1106   1.420       .  A
C1105     Br1111   1.910       .  S
C1106      C1107   1.418   1_556  A
C1107      C1108   1.414       .  A
C1107     Br1116   1.930       .  S
C1108     Br1112   1.926       .  S
C1117      C1118   1.420       .  A
C1117      C1122   1.421       .  A
C1118      C1119   1.397       .  A
C1118     Br1130   1.928       .  S
C1119      C1120   1.402       .  A
C1119     Br1134   1.934       .  S
C1120      C1123   1.480       .  S
C1120      C1121   1.407       .  A
C1121      C1122   1.414       .  A
C1121     Br1129   1.929       .  S
C1122     Br1133   1.926       .  S
C1123      C1124   1.408       .  A
C1123      C1128   1.408       .  A
C1124      C1125   1.402       .  A
C1124     Br1135   1.933       .  S
C1125      C1126   1.412       .  A
C1125     Br1131   1.933       .  S
C1126      C1127   1.410       .  A
C1127      C1128   1.408       .  A
C1127     Br1136   1.929       .  S
C1128     Br1132   1.928       .  S
