geometry optimzed in LAMMPS
_audit_creation_date              2020-12-01 
_audit_creation_method            'lammps2cif' 
_symmetry_space_group_name_H-M    'P1' 
_symmetry_Int_Tables_number       1 
_symmetry_cell_setting            triclinic 
loop_ 
_symmetry_equiv_pos_as_xyz 
  x,y,z 
_cell_length_a                    27.77110136 
_cell_length_b                    34.8133063193378 
_cell_length_c                    25.576751510996303 
_cell_angle_alpha                 87.71400660289638 
_cell_angle_beta                  105.15971577900186 
_cell_angle_gamma                 89.48099500721199 
loop_ 
_atom_site_label 
_atom_site_type_symbol 
_atom_site_fract_x 
_atom_site_fract_y 
_atom_site_fract_z 
_atom_site_charge 
C1          C  0.38264176  0.29840708  0.06201018     0.86800
C2          C  0.37664088  0.28414589  0.11761646    -0.53400
C3          C  0.33372856  0.29702604  0.12759756     0.09800
C4          C  0.29921727  0.32231569  0.08110609     0.20700
C5          C  0.33362358  0.28549471  0.02046567    -0.54100
C6          C  0.28922745  0.29742858  0.03158810     0.09900
C7          C  0.37659975  0.34167260  0.06437895    -0.53700
C8          C  0.33280563  0.35451849  0.07016556     0.10400
H9          H  0.40468099  0.26890599  0.14911700     0.14900
H10         H  0.26569362  0.33354842  0.09165923     0.00700
H11         H  0.33477569  0.26815970  0.98655126     0.15300
H12         H  0.40381107  0.36209188  0.05705225     0.15000
In13       In  0.11749651  0.39255195  0.15462006     1.36900
C14         C  0.20568229  0.36014376  0.18709467     0.77900
O15         O  0.14432239  0.44075058  0.10374829    -0.60500
O16         O  0.11924660  0.45887398  0.16924287    -0.51400
C17         C  0.04047392  0.35998989  0.08500607     0.70600
O18         O  0.08407434  0.35921282  0.07860001    -0.46300
C19         C  0.09799190  0.35328040  0.23973942     0.75300
O20         O  0.17689722  0.35571714  0.14055970    -0.58100
O21         O  0.09154087  0.38955275  0.23121315    -0.48200
O22         O  0.19203892  0.38502798  0.21496947    -0.54600
C23         C  0.13759656  0.46921307  0.13049708     0.85500
O24         O  0.03481781  0.38323706  0.11982169    -0.56500
O25         O  0.11253521  0.33670797  0.20374545    -0.59800
C26         C  0.34928478  0.05972571  0.90547368     0.30300
C27         C  0.36604549  0.48846199  0.96005156     0.30300
C28         C  0.35277935  0.02732642  0.86465589    -0.05800
C29         C  0.39149585  0.04800035  0.95440869    -0.06600
C30         C  0.30289634  0.04825044  0.92683105    -0.06500
C31         C  0.37051502  0.49132053  0.90240137    -0.05900
C32         C  0.39221428  0.00981589  0.97374846    -0.06600
C33         C  0.30129532  0.00879454  0.94000357    -0.06500
C34         C  0.37579617  0.46511114  0.86577944    -0.31900
N35         N  0.37782018  0.48432440  0.81963582     0.14600
C36         C  0.35832720  0.02277411  0.81232581    -0.31900
H37         H  0.36047674  0.04564890  0.78317334     0.16500
C38         C  0.44201786  0.00045739  0.99668361    -0.30900
N39         N  0.46957544  0.03226023  0.99518938     0.13300
C40         C  0.43926153  0.06100613  0.96839803    -0.30900
C41         C  0.27083963  0.00240890  0.97357316    -0.31200
N42         N  0.26187884  0.03566774  0.99257119     0.13800
H43         H  0.26451435  0.97510221  0.99181690     0.16500
C44         C  0.28130968  0.06409330  0.96542278    -0.31200
H45         H  0.28557167  0.09362875  0.97703574     0.16500
H46         H  0.45145562  0.08800892  0.95440185     0.16500
H47         H  0.37847945  0.43415434  0.87217093     0.16500
H48         H  0.47339236  0.47866999  0.02640717     0.16500
C49         C  0.14319470  0.28127137  0.97798734     0.86800
C50         C  0.19188660  0.30061539  0.01093881    -0.53400
C51         C  0.23627558  0.28619326  0.00185457     0.09800
C52         C  0.22653457  0.25383872  0.96124738     0.20700
C53         C  0.14601110  0.28547660  0.91871847    -0.54100
C54         C  0.18860413  0.27119059  0.91006373     0.09900
C55         C  0.15370050  0.23860711  0.99164491    -0.53700
C56         C  0.19656274  0.22448339  0.98497484     0.10400
H57         H  0.19058812  0.32281986  0.03901363     0.14900
H58         H  0.26026370  0.24083160  0.95308183     0.00700
H59         H  0.11538993  0.29443132  0.88450847     0.15300
H60         H  0.12906891  0.21940224  0.00635077     0.15000
In61       In  0.37364900  0.17791664  0.86501625     1.36900
C62         C  0.28308379  0.20073666  0.81835846     0.77900
O63         O  0.37910799  0.23534105  0.82107541    -0.60500
O64         O  0.41414813  0.18525014  0.80069441    -0.51400
C65         C  0.44503364  0.21184367  0.93780059     0.70600
O66         O  0.39922097  0.21782844  0.93429282    -0.46300
C67         C  0.35550635  0.10229284  0.88851994     0.75300
O68         O  0.30314639  0.20420072  0.86854473    -0.58100
O69         O  0.37073365  0.11300127  0.84769674    -0.48200
O70         O  0.30776651  0.18203130  0.79265955    -0.54600
C71         C  0.40460159  0.22127973  0.79217688     0.85500
O72         O  0.45395144  0.18327560  0.91235439    -0.56500
O73         O  0.35180884  0.12989932  0.91812797    -0.59800
C74         C  0.15847259  0.08923280  0.08733042     0.30300
C75         C  0.15781696  0.01519144  0.12724427     0.30300
C76         C  0.15451795  0.08578938  0.14500281    -0.05800
C77         C  0.11487473  0.06417115  0.05759384    -0.06600
C78         C  0.20581321  0.06548713  0.09176775    -0.06500
C79         C  0.15399164  0.04832321  0.16712535    -0.05900
C80         C  0.11580262  0.02626477  0.07783678    -0.06600
C81         C  0.20436625  0.02622848  0.10586063    -0.06500
C82         C  0.14854354  0.05372534  0.21938647    -0.31900
N83         N  0.14668681  0.09248037  0.22760768     0.14600
C84         C  0.15001935  0.11179027  0.18200405    -0.31900
H85         H  0.14851185  0.14277973  0.17600633     0.16500
C86         C  0.06829208  0.01268765  0.06327367    -0.30900
N87         N  0.03772711  0.04101051  0.03568794     0.13300
C88         C  0.06498481  0.07299902  0.03396440    -0.30900
C89         C  0.22178804  0.50961475  0.06281725    -0.31200
N90         N  0.24684750  0.03813198  0.04119178     0.13800
H91         H  0.22482166  0.47937601  0.05589917     0.16500
C92         C  0.23721901  0.07153816  0.05926290    -0.31200
H93         H  0.24355495  0.09863333  0.04056889     0.16500
H94         H  0.04950982  0.10149774  0.02111677     0.16500
H95         H  0.14638883  0.03124046  0.24910628     0.16500
H96         H  0.04169235  0.47989949  0.06047480     0.16500
C97         C  0.39790049  0.05452626  0.52749136     0.86800
C98         C  0.39576506  0.09396119  0.49692655    -0.53400
C99         C  0.43962547  0.11051506  0.50057941     0.09800
C100        C  0.48136950  0.09094652  0.54538436     0.20700
C101        C  0.44100789  0.03145548  0.51382974    -0.54100
C102        C  0.48652641  0.05050061  0.52598978     0.09900
C103        C  0.42130121  0.06095308  0.58736305    -0.53700
C104        C  0.45973806  0.08581915  0.59577551     0.10400
H105        H  0.36329112  0.10431019  0.46540329     0.14900
H106        H  0.00548193  0.10954103  0.52015683     0.00700
H107        H  0.43568081  0.00283279  0.49859052     0.15300
H108        H  0.40468821  0.05249087  0.61973536     0.15000
In109      In  0.13582019  0.14926976  0.36259183     1.36900
C110        C  0.04055816  0.14636171  0.34123679     0.77900
O111        O  0.11486763  0.19162656  0.42123060    -0.60500
O112        O  0.14630416  0.21439213  0.36016996    -0.51400
C113        C  0.21440130  0.11138911  0.42631081     0.70600
O114        O  0.17122188  0.10912959  0.43388569    -0.46300
C115        C  0.14246282  0.11202627  0.27506830     0.75300
O116        O  0.06883015  0.12420368  0.37726650    -0.58100
O117        O  0.15260253  0.14742282  0.28137018    -0.48200
O118        O  0.06099403  0.16639501  0.31116004    -0.54600
C119        C  0.12530549  0.22168928  0.39748778     0.85500
O120        O  0.21835307  0.13646100  0.39060562    -0.56500
O121        O  0.12777130  0.09576884  0.31294985    -0.59800
C122        C  0.40567625  0.31630198  0.63189693     0.30300
C123        C  0.41059335  0.24106440  0.60796707     0.30300
C124        C  0.42291193  0.28698099  0.68184117    -0.05800
C125        C  0.35598424  0.29896376  0.60167935    -0.06600
C126        C  0.44114838  0.30584168  0.59253706    -0.06500
C127        C  0.42922344  0.24972097  0.66744948    -0.05900
C128        C  0.35775139  0.26036133  0.58907344    -0.06600
C129        C  0.44048951  0.26695291  0.58123399    -0.06500
C130        C  0.43086872  0.22458689  0.71029849    -0.31900
N131        N  0.41898266  0.24314812  0.74973494     0.14600
C132        C  0.41205301  0.28121688  0.73278842    -0.31900
H133        H  0.39561925  0.30241567  0.75306824     0.16500
C134        C  0.31357291  0.25439021  0.54967890    -0.30900
N135        N  0.28460217  0.28720439  0.54116403     0.13300
C136        C  0.31075522  0.31467440  0.57207917    -0.30900
C137        C  0.46733790  0.25881987  0.54495375    -0.31200
N138        N  0.48895313  0.29072252  0.53305365     0.13800
H139        H  0.47136092  0.23117967  0.52889218     0.16500
C140        C  0.47318613  0.32014724  0.56078494    -0.31200
H141        H  0.48349969  0.34988632  0.55807612     0.16500
H142        H  0.29930500  0.34454619  0.57064102     0.16500
H143        H  0.43195655  0.19354839  0.70924568     0.16500
H144        H  0.30470022  0.22879582  0.52676521     0.16500
C145        C  0.11349772  0.02820013  0.48668741     0.86800
C146        C  0.07045408  0.05543423  0.49290057    -0.53400
C147        C  0.02334817  0.03882869  0.47731681     0.09800
C148        C  0.03391740  0.49513929  0.48019174     0.20700
C149        C  0.11580231  0.48958037  0.53859328    -0.54100
C150        C  0.07032354  0.47493312  0.52910399     0.09900
C151        C  0.10160162  0.52048244  0.44685042    -0.53700
C152        C  0.06185342  0.49692644  0.43462002     0.10000
H153        H  0.07686500  0.08414401  0.50775951     0.14900
H154        H  0.49928477  0.48248852  0.46242972     0.00700
H155        H  0.14460760  0.47894966  0.57402493     0.15300
H156        H  0.12304486  0.52703353  0.41790392     0.15000
In157      In  0.38436167  0.43129023  0.68008687     1.36900
C158        C  0.47226761  0.44907398  0.67392306     0.77900
O159        O  0.39839200  0.48142527  0.73560164    -0.60500
O160        O  0.36754887  0.43093506  0.76228321    -0.51400
C161        C  0.30269088  0.46741819  0.61954802     0.70600
O162        O  0.34503480  0.47037984  0.61047750    -0.46300
C163        C  0.39780964  0.35782016  0.64851231     0.75300
O164        O  0.43344839  0.46646201  0.64594626    -0.58100
O165        O  0.40237362  0.36672329  0.69714070    -0.48200
O166        O  0.46672014  0.42467391  0.70944757    -0.54600
C167        C  0.38127619  0.46530543  0.77158438     0.85500
O168        O  0.30058984  0.44260979  0.65649111    -0.56500
O169        O  0.38206161  0.38587383  0.61538072    -0.59800
C170        C  0.11085859  0.33906676  0.43535006     0.30300
C171        C  0.11588343  0.26319369  0.41272179     0.30300
C172        C  0.09574869  0.32997909  0.37600854    -0.05800
C173        C  0.16315096  0.31920211  0.45696363    -0.06600
C174        C  0.07835342  0.31329499  0.45984564    -0.06500
C175        C  0.09965633  0.29237296  0.36237540    -0.05900
C176        C  0.16498230  0.28058630  0.44454750    -0.06600
C177        C  0.07923463  0.27411115  0.45007561    -0.06500
C178        C  0.09977205  0.29570565  0.30703183    -0.31900
N179        N  0.09270442  0.33368178  0.28889762     0.14600
C180        C  0.08976448  0.35405956  0.33109912    -0.31900
H181        H  0.08910956  0.38517746  0.33047217     0.16500
C182        C  0.21057498  0.26511582  0.47338680    -0.30900
N183        N  0.23695767  0.29277585  0.50371983     0.13300
C184        C  0.20793915  0.32559804  0.49521333    -0.30900
C185        C  0.04660674  0.25927597  0.48041328    -0.31200
N186        N  0.02751752  0.28859642  0.50518218     0.13800
H187        H  0.03827833  0.22924004  0.48450217     0.16500
C188        C  0.04778226  0.32112947  0.49271020    -0.31200
H189        H  0.03960549  0.34893950  0.50539914     0.16500
H190        H  0.21734115  0.35149361  0.51730230     0.16500
H191        H  0.10817619  0.27275416  0.28331651     0.16500
H192        H  0.22219044  0.23528926  0.47452328     0.16500
C193        C  0.04918023  0.39355846  0.42034247    -0.21000
C194        C  0.10018791  0.38153200  0.43761074    -0.09000
C195        C  0.13605874  0.40862155  0.43321734     0.29900
C196        C  0.12175393  0.44678833  0.41965882    -0.21000
C197        C  0.07178815  0.45942437  0.41309174    -0.09000
C198        C  0.03519877  0.43171457  0.40714194     0.29900
F199        F  0.98599627  0.44176339  0.39131605    -0.19500
H200        H  0.01951913  0.37293589  0.41335086     0.18200
H201        H  0.15100733  0.46657074  0.41824358     0.18200
F202        F  0.18415255  0.39819397  0.43786449    -0.19500
C203        C  0.23550100  0.51782296  0.61467436    -0.21000
C204        C  0.25973296  0.49166229  0.58889362    -0.09000
C205        C  0.24644194  0.49206221  0.53243131     0.29900
C206        C  0.20671777  0.51521396  0.50265468    -0.21000
C207        C  0.17563064  0.53614895  0.52793827    -0.09000
C208        C  0.18934953  0.04079147  0.56253366     0.29900
F209        F  0.16339734  0.06223056  0.58941995    -0.19500
H210        H  0.24021578  0.01852217  0.63679908     0.18200
H211        H  0.19838659  0.51381923  0.45928287     0.18200
F212        F  0.27176461  0.46978568  0.50575750    -0.19500
C213        C  0.55856645  0.98933862  0.63638022    -0.21000
C214        C  0.05569663  0.46422680  0.57866859    -0.09000
C215        C  0.55222011  0.43066912  0.58789695     0.29900
C216        C  0.53273592  0.42290191  0.63203431    -0.21000
C217        C  0.51833351  0.45352549  0.65902494    -0.09000
C218        C  0.53187532  0.49096923  0.64878733     0.29900
F219        F  0.52399259  0.00991260  0.70616106    -0.19500
H220        H  0.04625227  0.02895631  0.58262734     0.18200
H221        H  0.52268300  0.39368876  0.64023076     0.18200
F222        F  0.56398219  0.40156753  0.55977605    -0.19500
C223        C  0.40155300  0.13322400  0.61904146    -0.21000
C224        C  0.45120925  0.12144173  0.62193639    -0.09000
C225        C  0.48747780  0.14929068  0.62803621     0.29900
C226        C  0.47284200  0.18749017  0.61841501    -0.21000
C227        C  0.42160084  0.19901653  0.60399354    -0.09000
C228        C  0.38652961  0.17140019  0.60854447     0.29900
F229        F  0.33884995  0.18122388  0.60708953    -0.19500
H230        H  0.37280265  0.11288446  0.61985489     0.18200
H231        H  0.50218362  0.20840153  0.62477728     0.18200
F232        F  0.02583744  0.13297484  0.61395836    -0.19500
C233        C  0.32190882  0.03772641  0.45617774    -0.21000
C234        C  0.34315170  0.04236643  0.51223614    -0.09000
C235        C  0.31184336  0.06084711  0.54001381     0.29900
C236        C  0.27127384  0.08411643  0.51195841    -0.21000
C237        C  0.25659077  0.08575591  0.45550628    -0.09000
C238        C  0.28022341  0.06054367  0.42768603     0.29900
F239        F  0.26442994  0.05927250  0.37289779    -0.19500
H240        H  0.34299258  0.02269908  0.43291343     0.18200
H241        H  0.25110969  0.10078480  0.53452515     0.18200
F242        F  0.32145203  0.05818900  0.59470595    -0.19500
C243        C  0.46074520  0.16167561  0.43939103    -0.21000
C244        C  0.93802763  0.13446724  0.41864880    -0.09000
C245        C  0.93120255  0.11294820  0.37148633     0.29900
C246        C  0.95828454  0.12193645  0.33434343    -0.21000
C247        C  0.98965019  0.15323070  0.34284591    -0.09000
C248        C  0.98453218  0.18038137  0.38020246     0.29900
F249        F  0.01087635  0.21315946  0.38425911    -0.19500
H250        H  0.46322972  0.18228708  0.47035799     0.18200
H251        H  0.96071385  0.10134665  0.30441343     0.18200
F252        F  0.90421250  0.08040434  0.36487146    -0.19500
C253        C  0.17645004  0.15791882  0.97596256    -0.21000
C254        C  0.20863498  0.18477821  0.00510804    -0.09000
C255        C  0.22417946  0.17976463  0.06173802     0.29900
C256        C  0.20131871  0.15270669  0.08885966    -0.21000
C257        C  0.16445352  0.12808713  0.05994098    -0.09000
C258        C  0.15321377  0.13100712  0.00234893     0.29900
F259        F  0.12299028  0.10597328  0.97062613    -0.19500
H260        H  0.16445830  0.16075994  0.93225652     0.18200
H261        H  0.21539303  0.14903096  0.13239818     0.18200
F262        F  0.25797774  0.20387208  0.09089189    -0.19500
C263        C  0.07709217  0.26858913  0.02937356    -0.21000
C264        C  0.09069990  0.28999627  0.98705216    -0.09000
C265        C  0.05068644  0.29857603  0.94101576     0.29900
C266        C  0.01092227  0.27302445  0.92714178    -0.21000
C267        C  0.00644296  0.24242271  0.96303870    -0.09000
C268        C  0.03738863  0.24236447  0.01623650     0.29900
F269        F  0.51667011  0.20808143  0.04444462    -0.19500
H270        H  0.10409280  0.26441340  0.06838459     0.18200
H271        H  0.98416461  0.27668562  0.88791023     0.18200
F272        F  0.05269791  0.32888515  0.90665539    -0.19500
C273        C  0.22215346  0.28086115  0.83041182    -0.21000
C274        C  0.19028770  0.26118005  0.85574803    -0.09000
C275        C  0.17113167  0.22570645  0.83659517     0.29900
C276        C  0.19458372  0.20567630  0.80379639    -0.21000
C277        C  0.23693560  0.22145089  0.79229279    -0.09000
C278        C  0.24276529  0.26144287  0.79457093     0.29900
F279        F  0.28007928  0.27823580  0.77721565    -0.19500
H280        H  0.23562743  0.30898229  0.84321820     0.18200
H281        H  0.18705619  0.17539898  0.79841813     0.18200
F282        F  0.13596028  0.20805509  0.85654795    -0.19500
C283        C  0.32841137  0.42304275  0.96103885    -0.21000
C284        C  0.36189203  0.45005061  0.98950307    -0.09000
C285        C  0.37035462  0.44927880  0.04693059     0.29900
C286        C  0.34788629  0.42206667  0.07376059    -0.21000
C287        C  0.31926704  0.39302716  0.04542575    -0.09000
C288        C  0.30646259  0.39558378  0.98841529     0.29900
F289        F  0.27724340  0.36865837  0.95941556    -0.19500
H290        H  0.31616798  0.42482122  0.91729923     0.18200
H291        H  0.35830264  0.42060697  0.11769903     0.18200
F292        F  0.39691030  0.47666108  0.07759993    -0.19500
C293        C  0.51899183  0.30455217  0.10306250    -0.21000
C294        C  0.52213798  0.33665805  0.06915912    -0.09000
C295        C  0.48539663  0.34176383  0.01975602     0.29900
C296        C  0.44374908  0.31746004  0.00807439    -0.21000
C297        C  0.43412401  0.29295215  0.04990119    -0.09000
C298        C  0.47612237  0.28205643  0.09273296     0.29900
F299        F  0.47511724  0.25122783  0.12646269    -0.19500
H300        H  0.54861677  0.29819960  0.13953139     0.18200
H301        H  0.41354308  0.32500249  0.97261552     0.18200
F302        F  0.48729556  0.37202711  0.98530326    -0.19500
C303        C  0.29708668  0.35264324  0.21812607    -0.21000
C304        C  0.25008444  0.33601726  0.20712902    -0.09000
C305        C  0.24560851  0.29643975  0.19890428     0.29900
C306        C  0.28491563  0.27637577  0.18767798    -0.21000
C307        C  0.32632133  0.29685457  0.18200499    -0.09000
C308        C  0.33651684  0.33204160  0.20743072     0.29900
F309        F  0.37917168  0.35067788  0.20705053    -0.19500
H310        H  0.30132690  0.38290087  0.22631217     0.18200
H311        H  0.27806725  0.24815892  0.17133034     0.18200
F312        F  0.20080804  0.27924805  0.19193379    -0.19500
C313        C  0.36491012  0.79037785  0.04518329     0.86800
C314        C  0.36184336  0.78508230  0.10426177    -0.53400
C315        C  0.31935160  0.79923483  0.11313266     0.09800
C316        C  0.28177953  0.81757543  0.06260984     0.20700
C317        C  0.31584847  0.77171764  0.01124988    -0.54100
C318        C  0.27158333  0.78613812  0.02085421     0.09900
C319        C  0.35481930  0.83322334  0.03305267    -0.53700
C320        C  0.31197927  0.84709903  0.03988957     0.10400
H321        H  0.39206722  0.77533103  0.13833452     0.14900
H322        H  0.24842035  0.83067858  0.07140642     0.00700
H323        H  0.31674652  0.75013298  0.98217625     0.15300
H324        H  0.37947267  0.85276444  0.01898948     0.15000
In325      In  0.13164208  0.89712066  0.16668182     1.36900
C326        C  0.22150080  0.87032681  0.20660327     0.77900
O327        O  0.15391306  0.94524339  0.11446597    -0.60500
O328        O  0.13695846  0.96200959  0.18591239    -0.51400
C329        C  0.06008114  0.86368971  0.09345195     0.70600
O330        O  0.10583514  0.85761391  0.09729165    -0.46300
C331        C  0.10079276  0.85470311  0.24036980     0.75300
O332        O  0.19870847  0.86911646  0.15686746    -0.58100
O333        O  0.09184208  0.89079228  0.23195757    -0.48200
O334        O  0.20030880  0.88909779  0.23572659    -0.54600
C335        C  0.15143276  0.97274245  0.14461231     0.85500
O336        O  0.05113753  0.89216322  0.11904982    -0.56500
O337        O  0.12549207  0.84028470  0.21107459    -0.59800
C338        C  0.36327690  0.56235778  0.91738830     0.30300
C339        C  0.34851322  0.98524529  0.94330089     0.30300
C340        C  0.36934854  0.52870813  0.87916621    -0.05800
C341        C  0.40559136  0.55280022  0.96741367    -0.06600
C342        C  0.31654511  0.54978678  0.93812611    -0.06500
C343        C  0.35240600  0.98963185  0.88580207    -0.05900
C344        C  0.40776896  0.51506376  0.98906790    -0.06600
C345        C  0.31779605  0.51081217  0.95439052    -0.06500
C346        C  0.35759400  0.96423298  0.84847493    -0.31900
N347        N  0.36060150  0.98419100  0.80336183     0.14600
C348        C  0.37456293  0.52307034  0.82702553    -0.31900
H349        H  0.37501146  0.54539496  0.79650883     0.16500
C350        C  0.45762567  0.50693962  0.01250600    -0.30900
N351        N  0.48429842  0.53888845  0.00881135     0.13300
C352        C  0.45320979  0.56660921  0.98032686    -0.30900
C353        C  0.28371670  0.50326636  0.98326372    -0.31200
N354        N  0.26737752  0.53631600  0.99608604     0.13800
H355        H  0.27788115  0.47607073  0.00211716     0.16500
C356        C  0.28750958  0.56536827  0.97033354    -0.31200
H357        H  0.28550648  0.59557357  0.97799093     0.16500
H358        H  0.46492670  0.59317765  0.96446619     0.16500
H359        H  0.35989332  0.93320204  0.85388177     0.16500
H360        H  0.45719163  0.97179822  0.00897472     0.16500
C361        C  0.12470655  0.77670585  0.96169466     0.86800
C362        C  0.17438662  0.78916546  0.00233463    -0.53400
C363        C  0.21820553  0.77593953  0.99115895     0.09800
C364        C  0.20698653  0.75038335  0.94240826     0.20700
C365        C  0.13048547  0.78965406  0.90546271    -0.54100
C366        C  0.17281206  0.77541524  0.89539563     0.09900
C367        C  0.12924887  0.73321306  0.96041318    -0.53700
C368        C  0.17258151  0.71926361  0.95466295     0.10400
H369        H  0.17390159  0.80699939  0.03592851     0.14900
H370        H  0.24008359  0.73814080  0.93200032     0.00700
H371        H  0.10241786  0.80462984  0.87372783     0.15300
H372        H  0.10160836  0.71358075  0.96873850     0.15000
In373      In  0.38794753  0.68086811  0.87193809     1.36900
C374        C  0.29900571  0.71083341  0.83528223     0.77900
O375        O  0.39342414  0.73747028  0.82544143    -0.60500
O376        O  0.41567050  0.68520718  0.79693789    -0.51400
C377        C  0.46521072  0.71375112  0.93985165     0.70600
O378        O  0.42149119  0.71572325  0.94594386    -0.46300
C379        C  0.36858507  0.60489954  0.89803160     0.75300
O380        O  0.32530600  0.71521868  0.88310575    -0.58100
O381        O  0.38405419  0.61490120  0.85708699    -0.48200
O382        O  0.31556933  0.68709432  0.80805122    -0.54600
C383        C  0.40947256  0.72162385  0.78983420     0.85500
O384        O  0.47069542  0.68918776  0.90654451    -0.56500
O385        O  0.36467851  0.63334877  0.92608783    -0.59800
C386        C  0.13953555  0.58541404  0.06678299     0.30300
C387        C  0.14264905  0.51194214  0.11121599     0.30300
C388        C  0.13256352  0.58320163  0.12363802    -0.05800
C389        C  0.09957367  0.55782969  0.03681741    -0.06600
C390        C  0.18876455  0.56384227  0.07554788    -0.06500
C391        C  0.13421164  0.54608408  0.14797382    -0.05900
C392        C  0.10155492  0.52045066  0.05944757    -0.06600
C393        C  0.19045148  0.52501970  0.09265672    -0.06500
C394        C  0.12953839  0.55264943  0.20029815    -0.31900
N395        N  0.12556082  0.59157985  0.20656316     0.14600
C396        C  0.12690281  0.60996346  0.15954004    -0.31900
H397        H  0.12437552  0.64085316  0.15234002     0.16500
C398        C  0.05402880  0.50610737  0.04426723    -0.30900
N399        N  0.02337844  0.53325005  0.01340790     0.13300
C400        C  0.05025035  0.56518483  0.01023999    -0.30900
C401        C  0.22693575  0.00992821  0.06825079    -0.31200
N402        N  0.24243513  0.53874729  0.03770899     0.13800
H403        H  0.22311898  0.98026240  0.05712963     0.16500
C404        C  0.22440204  0.57168509  0.04880260    -0.31200
H405        H  0.22992471  0.59875931  0.02938942     0.16500
H406        H  0.03468865  0.59327844  0.99509006     0.16500
H407        H  0.13060684  0.53079413  0.23189186     0.16500
H408        H  0.05626888  0.98574428  0.07767216     0.16500
C409        C  0.39258105  0.55736901  0.49490323     0.86800
C410        C  0.38919985  0.59763314  0.46636828    -0.53400
C411        C  0.43265671  0.61543191  0.47162391     0.09800
C412        C  0.47527676  0.59504494  0.51453908     0.20700
C413        C  0.43537470  0.53620758  0.47857844    -0.54100
C414        C  0.48067305  0.55556468  0.49171648     0.09900
C415        C  0.41681434  0.56182834  0.55516360    -0.53700
C416        C  0.45436581  0.58736464  0.56480889     0.10400
H417        H  0.35648601  0.60780907  0.43501665     0.14900
H418        H  0.00986530  0.60890387  0.53267027     0.00700
H419        H  0.42972090  0.50842735  0.46077314     0.15300
H420        H  0.40125357  0.55148067  0.58752642     0.15000
In421      In  0.12399855  0.64844012  0.34563670     1.36900
C422        C  0.03011880  0.64409797  0.33702999     0.77900
O423        O  0.11181958  0.68979641  0.41092782    -0.60500
O424        O  0.13396328  0.71372665  0.34414319    -0.51400
C425        C  0.20493949  0.60965362  0.40193174     0.70600
O426        O  0.16345573  0.60712855  0.41353498    -0.46300
C427        C  0.12344978  0.61174247  0.25451958     0.75300
O428        O  0.06179102  0.62116877  0.36793988    -0.58100
O429        O  0.13434172  0.64706853  0.26047905    -0.48200
O430        O  0.04586710  0.66635371  0.30523346    -0.54600
C431        C  0.11900503  0.72038924  0.38603542     0.85500
O432        O  0.20632343  0.63520730  0.36585636    -0.56500
O433        O  0.11073299  0.59580690  0.29385782    -0.59800
C434        C  0.39878209  0.81510646  0.62342915     0.30300
C435        C  0.40435937  0.74022800  0.59833723     0.30300
C436        C  0.41666168  0.78562155  0.67301250    -0.05800
C437        C  0.34930649  0.79753114  0.59263002    -0.06600
C438        C  0.43486324  0.80545640  0.58492826    -0.06500
C439        C  0.42158040  0.74830598  0.65799691    -0.05900
C440        C  0.35146016  0.75908973  0.57935633    -0.06600
C441        C  0.43449461  0.76685890  0.57246403    -0.06500
C442        C  0.42403478  0.72314089  0.70102658    -0.31900
N443        N  0.41770744  0.74235218  0.74291426     0.14600
C444        C  0.41138934  0.78060622  0.72642676    -0.31900
H445        H  0.39968793  0.80262138  0.74943587     0.16500
C446        C  0.30864519  0.75371702  0.53777955    -0.30900
N447        N  0.27975924  0.78651286  0.52873925     0.13300
C448        C  0.30505255  0.81364628  0.56103343    -0.30900
C449        C  0.46429560  0.75954115  0.53872259    -0.31200
N450        N  0.48766311  0.79163604  0.53068785     0.13800
H451        H  0.46981217  0.73219940  0.52254672     0.16500
C452        C  0.46993949  0.82039552  0.55771405    -0.31200
H453        H  0.48178869  0.84989485  0.55853323     0.16500
H454        H  0.29408342  0.84367205  0.55904658     0.16500
H455        H  0.42360591  0.69209061  0.69958086     0.16500
H456        H  0.30091682  0.72870815  0.51345791     0.16500
C457        C  0.11984811  0.52777526  0.50741322     0.86800
C458        C  0.07603686  0.55350752  0.51471458    -0.53400
C459        C  0.02940728  0.53635768  0.49770995     0.09800
C460        C  0.02673836  0.99677664  0.46267243     0.20700
C461        C  0.10879353  0.99122185  0.52022138    -0.54100
C462        C  0.06300682  0.97757534  0.51240273     0.09900
C463        C  0.09426901  0.01913427  0.42680866    -0.53700
C464        C  0.05415464  0.99577753  0.41671536     0.10000
H465        H  0.08183970  0.58167986  0.53146008     0.14900
H466        H  0.50537576  0.97910304  0.48958397     0.00700
H467        H  0.13772691  0.98065389  0.55553327     0.15300
H468        H  0.11528509  0.02443254  0.39710723     0.15000
In469      In  0.37262949  0.92937487  0.66788801     1.36900
C470        C  0.46547531  0.94336630  0.68449192     0.77900
O471        O  0.37673978  0.98271898  0.71682370    -0.60500
O472        O  0.35778075  0.92948801  0.74997090    -0.51400
C473        C  0.29363403  0.96447206  0.59996865     0.70600
O474        O  0.33623841  0.96374888  0.59097078    -0.46300
C475        C  0.38897482  0.85635802  0.63857655     0.75300
O476        O  0.43209805  0.96221363  0.64932471    -0.58100
O477        O  0.36461567  0.86386103  0.67288865    -0.48200
O478        O  0.45099953  0.91977649  0.71565111    -0.54600
C479        C  0.36498568  0.96531521  0.75565565     0.85500
O480        O  0.28998771  0.94328544  0.63994422    -0.56500
O481        O  0.40133052  0.88617265  0.61616851    -0.59800
C482        C  0.10678667  0.83754453  0.42639841     0.30300
C483        C  0.11177100  0.76185798  0.40390053     0.30300
C484        C  0.08334850  0.82750672  0.36802828    -0.05800
C485        C  0.16036192  0.81935076  0.44040507    -0.06600
C486        C  0.08087783  0.81162808  0.45765725    -0.06500
C487        C  0.08946621  0.79009654  0.35405039    -0.05900
C488        C  0.16218173  0.78046971  0.42830201    -0.06600
C489        C  0.08030517  0.77250498  0.44718174    -0.06500
C490        C  0.09635643  0.79538315  0.30128369    -0.31900
N491        N  0.08727781  0.83309986  0.28343842     0.14600
C492        C  0.07729608  0.85194443  0.32357774    -0.31900
H493        H  0.07566423  0.88300073  0.32365985     0.16500
C494        C  0.20714727  0.76484211  0.45878781    -0.30900
N495        N  0.23331096  0.79243355  0.48932154     0.13300
C496        C  0.20424496  0.82511537  0.48047177    -0.30900
C497        C  0.04854726  0.75861184  0.47932953    -0.31200
N498        N  0.03255939  0.78838250  0.50622037     0.13800
H499        H  0.03757139  0.72906681  0.48191816     0.16500
C500        C  0.05370696  0.82018086  0.49338560    -0.31200
H501        H  0.04710155  0.84823148  0.50647744     0.16500
H502        H  0.21235010  0.85032729  0.50435042     0.16500
H503        H  0.11232535  0.77436542  0.28031777     0.16500
H504        H  0.21769859  0.73468261  0.46209601     0.16500
C505        C  0.04450543  0.89121619  0.41615874    -0.21000
C506        C  0.09582154  0.87997464  0.42935352    -0.09000
C507        C  0.13000569  0.90730395  0.42091847     0.29900
C508        C  0.11382400  0.94463265  0.40392888    -0.21000
C509        C  0.06394917  0.95680379  0.39905510    -0.09000
C510        C  0.02871113  0.92858374  0.39925623     0.29900
F511        F  0.97910662  0.93735701  0.38488877    -0.19500
H512        H  0.01569594  0.87013495  0.41367927     0.18200
H513        H  0.14183085  0.96437478  0.39825648     0.18200
F514        F  0.17814950  0.89770823  0.42446819    -0.19500
C515        C  0.22878935  0.01671681  0.59313941    -0.21000
C516        C  0.25226600  0.98969450  0.56781953    -0.09000
C517        C  0.23903068  0.98970413  0.51131836     0.29900
C518        C  0.20015022  0.01365757  0.48114628    -0.21000
C519        C  0.16971160  0.03555317  0.50627645    -0.09000
C520        C  0.19483705  0.54098745  0.58436456     0.29900
F521        F  0.16796925  0.56131665  0.61151678    -0.19500
H522        H  0.24701033  0.51941967  0.65835445     0.18200
H523        H  0.19129866  0.01173128  0.43779396     0.18200
F524        F  0.26231399  0.96535343  0.48519762    -0.19500
C525        C  0.55130215  0.49855036  0.60507174    -0.21000
C526        C  0.04942556  0.96882623  0.56306713    -0.09000
C527        C  0.55207539  0.92310190  0.61037589     0.29900
C528        C  0.52976320  0.91447799  0.65215685    -0.21000
C529        C  0.51621643  0.94447377  0.68090710    -0.09000
C530        C  0.53566817  0.98093243  0.67732402     0.29900
F531        F  0.51930675  0.52069321  0.67575062    -0.19500
H532        H  0.05833913  0.52287112  0.60563218     0.18200
H533        H  0.51548582  0.88585475  0.65548754     0.18200
F534        F  0.56075880  0.89506438  0.57876133    -0.19500
C535        C  0.39506485  0.63213834  0.59173042    -0.21000
C536        C  0.44495428  0.62136085  0.59386824    -0.09000
C537        C  0.48164014  0.64886007  0.60673353     0.29900
C538        C  0.46743486  0.68695070  0.60757362    -0.21000
C539        C  0.41627754  0.69855118  0.59327816    -0.09000
C540        C  0.38060333  0.67030636  0.59023793     0.29900
F541        F  0.33248567  0.67896995  0.58828269    -0.19500
H542        H  0.36565796  0.61171591  0.58607859     0.18200
H543        H  0.49673864  0.70771843  0.61885461     0.18200
F544        F  0.03324049  0.63499356  0.62483699    -0.19500
C545        C  0.31603081  0.53995504  0.42460469    -0.21000
C546        C  0.33841201  0.54397751  0.48051550    -0.09000
C547        C  0.30742464  0.56040715  0.51037415     0.29900
C548        C  0.26521773  0.58255915  0.48448245    -0.21000
C549        C  0.24833683  0.58447551  0.42827491    -0.09000
C550        C  0.27223346  0.56120142  0.39833380     0.29900
F551        F  0.25511985  0.56089632  0.34355738    -0.19500
H552        H  0.33718224  0.52679681  0.39975721     0.18200
H553        H  0.24521581  0.59783161  0.50865502     0.18200
F554        F  0.31842856  0.55661346  0.56505920    -0.19500
C555        C  0.45807681  0.66994103  0.41940854    -0.21000
C556        C  0.93990999  0.62880148  0.43058578    -0.09000
C557        C  0.93224614  0.60538458  0.38525060     0.29900
C558        C  0.95340901  0.61520551  0.34329839    -0.21000
C559        C  0.98119262  0.64843160  0.34600680    -0.09000
C560        C  0.97785014  0.67599794  0.38356601     0.29900
F561        F  0.00170319  0.70980548  0.38354221    -0.19500
H562        H  0.45925943  0.68859813  0.45247234     0.18200
H563        H  0.95496793  0.59404865  0.31379313     0.18200
F564        F  0.90993934  0.57083000  0.38434682    -0.19500
C565        C  0.15861804  0.65147250  0.95253437    -0.21000
C566        C  0.18554895  0.68118088  0.98083197    -0.09000
C567        C  0.19680374  0.67943911  0.03780067     0.29900
C568        C  0.17527651  0.65159608  0.06495466    -0.21000
C569        C  0.14372507  0.62351124  0.03643181    -0.09000
C570        C  0.13715968  0.62353144  0.97923082     0.29900
F571        F  0.11360919  0.59486401  0.94880628    -0.19500
H572        H  0.14941969  0.65236678  0.90860484     0.18200
H573        H  0.18639945  0.65050376  0.10874848     0.18200
F574        F  0.22370066  0.70754022  0.06667221    -0.19500
C575        C  0.06460079  0.76055874  0.01798688    -0.21000
C576        C  0.07403879  0.78390661  0.97498408    -0.09000
C577        C  0.03164867  0.79550540  0.93308668     0.29900
C578        C  0.98780815  0.77416000  0.92461077    -0.21000
C579        C  0.98465228  0.74240441  0.95919601    -0.09000
C580        C  0.02211804  0.73716929  0.00792473     0.29900
F581        F  0.53092144  0.71623424  0.05040727    -0.19500
H582        H  0.09519085  0.75277096  0.05293595     0.18200
H583        H  0.95780102  0.78060854  0.88854376     0.18200
F584        F  0.03339310  0.82526428  0.89786773    -0.19500
C585        C  0.21938717  0.79392348  0.83188991    -0.21000
C586        C  0.17922034  0.77327869  0.84076885    -0.09000
C587        C  0.16917685  0.73709672  0.81810423     0.29900
C588        C  0.20788935  0.71673646  0.80566019    -0.21000
C589        C  0.25418972  0.73405826  0.81316045    -0.09000
C590        C  0.25797324  0.77391664  0.81906313     0.29900
F591        F  0.30217845  0.79152571  0.82326984    -0.19500
H592        H  0.22630002  0.82257045  0.84680425     0.18200
H593        H  0.20430848  0.68614701  0.79971135     0.18200
F594        F  0.12830166  0.71765695  0.82298224    -0.19500
C595        C  0.30718805  0.92110513  0.93815016    -0.21000
C596        C  0.34274108  0.94583220  0.96881174    -0.09000
C597        C  0.35335288  0.94162134  0.02620846     0.29900
C598        C  0.33018782  0.91364390  0.05086716    -0.21000
C599        C  0.29965319  0.88665549  0.02000492    -0.09000
C600        C  0.28577427  0.89207379  0.96332416     0.29900
F601        F  0.25659612  0.86605866  0.93222591    -0.19500
H602        H  0.29380372  0.92537612  0.89466929     0.18200
H603        H  0.34137430  0.90997558  0.09456913     0.18200
F604        F  0.38283920  0.96635256  0.05929142    -0.19500
C605        C  0.49632521  0.79945212  0.09816838    -0.21000
C606        C  0.50057322  0.83079873  0.06339306    -0.09000
C607        C  0.47058759  0.83115887  0.00973517     0.29900
C608        C  0.43163730  0.80439007  0.99509616    -0.21000
C609        C  0.41764896  0.78207154  0.03642173    -0.09000
C610        C  0.45734693  0.77337246  0.08278717     0.29900
F611        F  0.45554515  0.74243462  0.11617757    -0.19500
H612        H  0.52265510  0.79557906  0.13765611     0.18200
H613        H  0.40511978  0.80876225  0.95580359     0.18200
F614        F  0.47565855  0.85922186  0.97333025    -0.19500
C615        C  0.30992668  0.86312792  0.21870887    -0.21000
C616        C  0.26664697  0.84740079  0.22799424    -0.09000
C617        C  0.25901316  0.80773294  0.22265649     0.29900
C618        C  0.28251633  0.78828372  0.18945028    -0.21000
C619        C  0.31687251  0.80774354  0.16759338    -0.09000
C620        C  0.33557741  0.84295794  0.18816471     0.29900
F621        F  0.37206761  0.86066743  0.17045390    -0.19500
H622        H  0.31750754  0.89332952  0.22475842     0.18200
H623        H  0.26888372  0.76058105  0.17483527     0.18200
F624        F  0.21910003  0.79134483  0.23532596    -0.19500
C625        C  0.86372901  0.29273231  0.04894374     0.86800
C626        C  0.86115252  0.28765923  0.10828241    -0.53400
C627        C  0.81851917  0.30151342  0.11753051     0.09800
C628        C  0.78046874  0.31934701  0.06685921     0.20700
C629        C  0.81486811  0.27364295  0.01561387    -0.54100
C630        C  0.77054096  0.28766875  0.02544206     0.09900
C631        C  0.85311147  0.33548427  0.03657985    -0.53700
C632        C  0.81014334  0.34912068  0.04362382     0.10400
H633        H  0.89212570  0.27900760  0.14222598     0.14900
H634        H  0.74687407  0.33211165  0.07560368     0.00700
H635        H  0.81601912  0.25201689  0.98668949     0.15300
H636        H  0.87760282  0.35505620  0.02224432     0.15000
In637      In  0.63167935  0.40040746  0.16340078     1.36900
C638        C  0.72302423  0.37702632  0.20652135     0.77900
O639        O  0.65325150  0.44843057  0.11089518    -0.60500
O640        O  0.63411645  0.46547406  0.18112138    -0.51400
C641        C  0.56065449  0.36557908  0.09060189     0.70600
O642        O  0.60657975  0.35963253  0.09502558    -0.46300
C643        C  0.60203879  0.35864234  0.23820734     0.75300
O644        O  0.70186427  0.37507604  0.15639156    -0.58100
O645        O  0.59262041  0.39461450  0.22909402    -0.48200
O646        O  0.69899629  0.39434920  0.23425024    -0.54600
C647        C  0.64927384  0.47609172  0.14023947     0.85500
O648        O  0.55132087  0.39425603  0.11556760    -0.56500
O649        O  0.62612975  0.34382700  0.20850989    -0.59800
C650        C  0.86601562  0.06051940  0.92311810     0.30300
C651        C  0.84922436  0.48508024  0.94502441     0.30300
C652        C  0.87425324  0.02615179  0.88682928    -0.05800
C653        C  0.90707866  0.05200111  0.97483722    -0.06600
C654        C  0.81820838  0.04800463  0.94199404    -0.06500
C655        C  0.85442352  0.48840497  0.88785252    -0.05900
C656        C  0.90906724  0.01458650  0.99767993    -0.06600
C657        C  0.81980022  0.00937424  0.96000494    -0.06500
C658        C  0.85991225  0.46232221  0.85135084    -0.31900
N659        N  0.86451802  0.48160210  0.80629605     0.14600
C660        C  0.88213606  0.01953066  0.83596855    -0.31900
H661        H  0.88338041  0.04134523  0.80505637     0.16500
C662        C  0.95869370  0.00698462  0.02287626    -0.30900
N663        N  0.98542201  0.03890409  0.01925183     0.13300
C664        C  0.95460018  0.06615946  0.98908850    -0.30900
C665        C  0.78468643  0.00229352  0.98772386    -0.31200
N666        N  0.76619754  0.03550139  0.99727575     0.13800
H667        H  0.77942440  0.97563766  0.00827999     0.16500
C668        C  0.78670962  0.06412539  0.97114863    -0.31200
H669        H  0.78325385  0.09453903  0.97671814     0.16500
H670        H  0.96672458  0.09235388  0.97263669     0.16500
H671        H  0.86142959  0.43132653  0.85735499     0.16500
H672        H  0.95769587  0.47137989  0.01185730     0.16500
C673        C  0.62385039  0.27727027  0.96467307     0.86800
C674        C  0.67303853  0.28981128  0.00632381    -0.53400
C675        C  0.71735190  0.27686463  0.99584004     0.09800
C676        C  0.70702855  0.25142769  0.94699031     0.20700
C677        C  0.63074424  0.29060521  0.90901846    -0.54100
C678        C  0.67354580  0.27666344  0.89987163     0.09900
C679        C  0.62881458  0.23385485  0.96333370    -0.53700
C680        C  0.67242728  0.22016836  0.95814836     0.10400
H681        H  0.67197934  0.30772698  0.03968195     0.14900
H682        H  0.74041869  0.23926457  0.93716097     0.00700
H683        H  0.60354861  0.30622793  0.87718009     0.15300
H684        H  0.60106754  0.21403138  0.97094660     0.15000
In685      In  0.89115889  0.17901237  0.87666961     1.36900
C686        C  0.80340602  0.21189932  0.84420896     0.77900
O687        O  0.89656258  0.23458862  0.82847076    -0.60500
O688        O  0.91700049  0.18160931  0.80033565    -0.51400
C689        C  0.96878726  0.21245154  0.94289157     0.70600
O690        O  0.92596077  0.21261905  0.95143643    -0.46300
C691        C  0.87138806  0.10297650  0.90309007     0.75300
O692        O  0.83234228  0.21639028  0.89062422    -0.58100
O693        O  0.88668768  0.11279875  0.86198161    -0.48200
O694        O  0.81651802  0.18656704  0.81660392    -0.54600
C695        C  0.91123775  0.21798502  0.79258788     0.85500
O696        O  0.97390541  0.18897787  0.90807960    -0.56500
O697        O  0.86760627  0.13161995  0.93084522    -0.59800
C698        C  0.63753885  0.08625619  0.06699788     0.30300
C699        C  0.64020363  0.01308033  0.11146387     0.30300
C700        C  0.62996852  0.08417375  0.12350615    -0.05800
C701        C  0.59772898  0.05884428  0.03675831    -0.06600
C702        C  0.68675458  0.06459783  0.07579190    -0.06500
C703        C  0.63138413  0.04721268  0.14799007    -0.05900
C704        C  0.59956189  0.02152338  0.05938385    -0.06600
C705        C  0.68825566  0.02584887  0.09327286    -0.06500
C706        C  0.62457102  0.05398171  0.19945293    -0.31900
N707        N  0.61949662  0.09293843  0.20486453     0.14600
C708        C  0.62223519  0.11106036  0.15819339    -0.31900
H709        H  0.61914510  0.14188972  0.15032287     0.16500
C710        C  0.55222666  0.00709245  0.04360953    -0.30900
N711        N  0.52182579  0.03421318  0.01247604     0.13300
C712        C  0.54855717  0.06624061  0.00984208    -0.30900
C713        C  0.72495110  0.51271167  0.06501021    -0.31200
N714        N  0.73982336  0.03869594  0.03758485     0.13800
H715        H  0.72122669  0.48290835  0.05459086     0.16500
C716        C  0.72184598  0.07188232  0.04799399    -0.31200
H717        H  0.72737504  0.09873156  0.02803172     0.16500
H718        H  0.53295126  0.09432179  0.99467838     0.16500
H719        H  0.62462746  0.03226979  0.23094572     0.16500
H720        H  0.55491672  0.48708297  0.07041118     0.16500
C721        C  0.88597120  0.05812469  0.48452666     0.86800
C722        C  0.88424952  0.09984637  0.46105772    -0.53400
C723        C  0.92858361  0.11656555  0.46798602     0.09800
C724        C  0.97018712  0.09363515  0.50906837     0.20700
C725        C  0.92809369  0.03764183  0.46605856    -0.54100
C726        C  0.97415095  0.05557130  0.48178753     0.09900
C727        C  0.90994674  0.05914155  0.54551384    -0.53700
C728        C  0.94842139  0.08377807  0.55829715     0.10400
H729        H  0.85190380  0.11214904  0.43108260     0.14900
H730        H  0.51600728  0.10759731  0.55301239     0.00700
H731        H  0.92148146  0.01123887  0.44464290     0.15300
H732        H  0.89396490  0.04717109  0.57665781     0.15000
In733      In  0.61599662  0.15093829  0.34213753     1.36900
C734        C  0.52451656  0.14215017  0.34187841     0.77900
O735        O  0.61685001  0.19264037  0.41159008    -0.60500
O736        O  0.61382134  0.21652219  0.33393359    -0.51400
C737        C  0.69844733  0.11358053  0.39481785     0.70600
O738        O  0.65878196  0.11202185  0.41031853    -0.46300
C739        C  0.61577171  0.11355040  0.25187577     0.75300
O740        O  0.55932649  0.12063509  0.37035639    -0.58100
O741        O  0.62497676  0.14923700  0.25666688    -0.48200
O742        O  0.53565990  0.16547388  0.30811084    -0.54600
C743        C  0.61157062  0.22307360  0.38184178     0.85500
O744        O  0.69779067  0.13823501  0.35688524    -0.56500
O745        O  0.60385519  0.09764023  0.29171839    -0.59800
C746        C  0.89930003  0.31136414  0.62477041     0.30300
C747        C  0.90254004  0.23618272  0.59810302     0.30300
C748        C  0.91175730  0.28064278  0.67329230    -0.05800
C749        C  0.85044839  0.29564506  0.58868924    -0.06600
C750        C  0.93843908  0.30075587  0.59034266    -0.06500
C751        C  0.91495338  0.24338817  0.65778582    -0.05900
C752        C  0.85147315  0.25729606  0.57469214    -0.06600
C753        C  0.93738025  0.26212740  0.57737754    -0.06500
C754        C  0.91979059  0.21826847  0.70122805    -0.31900
N755        N  0.91745766  0.23792056  0.74435542     0.14600
C756        C  0.91199265  0.27628214  0.72842252    -0.31900
H757        H  0.90515759  0.29881279  0.75367857     0.16500
C758        C  0.80637597  0.25147850  0.53667300    -0.30900
N759        N  0.77796182  0.28452593  0.52909669     0.13300
C760        C  0.80485336  0.31161818  0.56045903    -0.30900
C761        C  0.96808097  0.25474639  0.54453126    -0.31200
N762        N  0.99191992  0.28673820  0.53699475     0.13800
H763        H  0.97251404  0.22770445  0.52699437     0.16500
C764        C  0.97403666  0.31555752  0.56377416    -0.31200
H765        H  0.98512399  0.34524311  0.56357646     0.16500
H766        H  0.79321587  0.34126720  0.56122535     0.16500
H767        H  0.91962728  0.18720102  0.70015594     0.16500
H768        H  0.79611176  0.22581062  0.51430906     0.16500
C769        C  0.62692982  0.02668020  0.53224670     0.86800
C770        C  0.58303858  0.05151838  0.54122309    -0.53400
C771        C  0.53640131  0.03449490  0.52276743     0.09800
C772        C  0.53466074  0.49791745  0.47238864     0.20700
C773        C  0.61669851  0.49281757  0.52988045    -0.54100
C774        C  0.57128215  0.47843188  0.52150054     0.09900
C775        C  0.60159207  0.52192857  0.43687298    -0.53700
C776        C  0.56173120  0.49852276  0.42626837     0.10000
H777        H  0.58878523  0.07906655  0.55984771     0.14900
H778        H  0.99833291  0.47991088  0.46882294     0.00700
H779        H  0.64552302  0.48239540  0.56531611     0.15300
H780        H  0.62250422  0.52751838  0.40714897     0.15000
In781      In  0.87709337  0.42651824  0.67075191     1.36900
C782        C  0.96816438  0.44317160  0.67541265     0.77900
O783        O  0.88584082  0.47868968  0.72253099    -0.60500
O784        O  0.85936109  0.42701830  0.75188647    -0.51400
C785        C  0.79711981  0.46264981  0.60670603     0.70600
O786        O  0.83853997  0.46070586  0.59513013    -0.46300
C787        C  0.89085351  0.35283639  0.64092032     0.75300
O788        O  0.93143753  0.46202990  0.64566201    -0.58100
O789        O  0.88601271  0.36105527  0.68724202    -0.48200
O790        O  0.95860782  0.41767817  0.70733504    -0.54600
C791        C  0.86994266  0.46223290  0.75925975     0.85500
O792        O  0.79443466  0.44168389  0.64736888    -0.56500
O793        O  0.88375845  0.38179346  0.60829860    -0.59800
C794        C  0.60539504  0.33972168  0.42751873     0.30300
C795        C  0.60641297  0.26432296  0.40139012     0.30300
C796        C  0.58786721  0.33192836  0.36791091    -0.05800
C797        C  0.65684422  0.31848942  0.44700779    -0.06600
C798        C  0.57278606  0.31458526  0.45209064    -0.06500
C799        C  0.59108431  0.29467927  0.35257605    -0.05900
C800        C  0.65690505  0.27996497  0.43340040    -0.06600
C801        C  0.57081107  0.27568362  0.44016059    -0.06500
C802        C  0.59619686  0.29958804  0.29911320    -0.31900
N803        N  0.59031500  0.33777839  0.28285722     0.14600
C804        C  0.58419146  0.35702167  0.32462380    -0.31900
H805        H  0.58493462  0.38805901  0.32577072     0.16500
C806        C  0.70228730  0.26351801  0.46172965    -0.30900
N807        N  0.72988685  0.29058288  0.49254551     0.13300
C808        C  0.70195102  0.32383053  0.48500104    -0.30900
C809        C  0.53823815  0.26187635  0.47147114    -0.31200
N810        N  0.52215581  0.29155736  0.49839855     0.13800
H811        H  0.52851433  0.23217692  0.47540551     0.16500
C812        C  0.54453364  0.32316975  0.48691369    -0.31200
H813        H  0.54003260  0.35087156  0.50236717     0.16500
H814        H  0.71230263  0.34935803  0.50767645     0.16500
H815        H  0.60774677  0.27772541  0.27581831     0.16500
H816        H  0.71298725  0.23354397  0.46208514     0.16500
C817        C  0.54633218  0.39533052  0.41584866    -0.21000
C818        C  0.59693934  0.38223114  0.43191502    -0.09000
C819        C  0.63367397  0.40851095  0.42725340     0.29900
C820        C  0.62057056  0.44685468  0.41368476    -0.21000
C821        C  0.57088837  0.46037573  0.40643394    -0.09000
C822        C  0.53351016  0.43344522  0.40163141     0.29900
F823        F  0.48456813  0.44430074  0.38623028    -0.19500
H824        H  0.51587384  0.37543604  0.40957835     0.18200
H825        H  0.65040116  0.46604161  0.41220340     0.18200
F826        F  0.68122704  0.39708489  0.43086544    -0.19500
C827        C  0.73492701  0.51677857  0.60231755    -0.21000
C828        C  0.75634036  0.48895181  0.57605280    -0.09000
C829        C  0.74335599  0.49018897  0.51951567     0.29900
C830        C  0.70631045  0.51585452  0.49022725    -0.21000
C831        C  0.67676983  0.53806750  0.51599697    -0.09000
C832        C  0.70280963  0.03743226  0.60975901     0.29900
F833        F  0.67672529  0.05647000  0.63905913    -0.19500
H834        H  0.75614361  0.01350873  0.68147068     0.18200
H835        H  0.69826407  0.51542160  0.44675750     0.18200
F836        F  0.76630716  0.46639988  0.49232825    -0.19500
C837        C  0.04249974  0.99937141  0.59489145    -0.21000
C838        C  0.55703658  0.46875441  0.57148513    -0.09000
C839        C  0.05083688  0.42587597  0.59385005     0.29900
C840        C  0.03145120  0.41718137  0.63785508    -0.21000
C841        C  0.01654105  0.44721231  0.66550207    -0.09000
C842        C  0.03113490  0.48470115  0.65728714     0.29900
F843        F  0.01532805  0.02209205  0.66839966    -0.19500
H844        H  0.56997872  0.01853868  0.63143681     0.18200
H845        H  0.02113819  0.38783551  0.64480959     0.18200
F846        F  0.06245909  0.39742084  0.56468280    -0.19500
C847        C  0.88992219  0.12795789  0.58822146    -0.21000
C848        C  0.93960496  0.11654435  0.59022988    -0.09000
C849        C  0.97704959  0.14318715  0.60575392     0.29900
C850        C  0.96393620  0.18133220  0.60863691    -0.21000
C851        C  0.91321772  0.19412714  0.59275395    -0.09000
C852        C  0.87661127  0.16640396  0.58838936     0.29900
F853        F  0.82869248  0.17583071  0.58635234    -0.19500
H854        H  0.85995986  0.10798641  0.58123973     0.18200
H855        H  0.99390884  0.20123368  0.62217497     0.18200
F856        F  0.53662614  0.13937766  0.63899959    -0.19500
C857        C  0.80992037  0.04545967  0.41048427    -0.21000
C858        C  0.83142749  0.04585457  0.46714833    -0.09000
C859        C  0.79999833  0.05960192  0.49835938     0.29900
C860        C  0.75724126  0.08168093  0.47443809    -0.21000
C861        C  0.74169734  0.08774605  0.41854674    -0.09000
C862        C  0.76651775  0.06769694  0.38619293     0.29900
F863        F  0.75050484  0.07138740  0.33131541    -0.19500
H864        H  0.83154275  0.03454195  0.38449470     0.18200
H865        H  0.73676722  0.09477625  0.50005504     0.18200
F866        F  0.81193045  0.05460972  0.55290115    -0.19500
C867        C  0.96142605  0.16979230  0.42067210    -0.21000
C868        C  0.44734969  0.12386241  0.44799316    -0.09000
C869        C  0.44027695  0.09826398  0.40507638     0.29900
C870        C  0.45540064  0.10826805  0.35906339    -0.21000
C871        C  0.47741673  0.14357782  0.35546340    -0.09000
C872        C  0.47362177  0.17205272  0.39153647     0.29900
F873        F  0.49094325  0.20771857  0.38488160    -0.19500
H874        H  0.96487237  0.18749413  0.45515509     0.18200
H875        H  0.45718428  0.08634162  0.33066397     0.18200
F876        F  0.42255170  0.06243702  0.40897749    -0.19500
C877        C  0.65726921  0.15272090  0.95410144    -0.21000
C878        C  0.68506982  0.18177964  0.98314107    -0.09000
C879        C  0.69649367  0.17937516  0.04008513     0.29900
C880        C  0.67409042  0.15180054  0.06657614    -0.21000
C881        C  0.64187464  0.12440706  0.03736639    -0.09000
C882        C  0.63495914  0.12499867  0.98013413     0.29900
F883        F  0.61023230  0.09709962  0.94899052    -0.19500
H884        H  0.64786653  0.15419791  0.91014985     0.18200
H885        H  0.68517963  0.15019032  0.11040146     0.18200
F886        F  0.72451391  0.20663849  0.06966794    -0.19500
C887        C  0.56208869  0.26055676  0.01876640    -0.21000
C888        C  0.57227657  0.28388917  0.97612496    -0.09000
C889        C  0.53055897  0.29423885  0.93263046     0.29900
C890        C  0.48757385  0.27189919  0.92283920    -0.21000
C891        C  0.48374979  0.24082479  0.95816358    -0.09000
C892        C  0.51995746  0.23671153  0.00805111     0.29900
F893        F  0.03237799  0.21506584  0.05368844    -0.19500
H894        H  0.59194645  0.25360404  0.05476806     0.18200
H895        H  0.45836897  0.27755612  0.88582413     0.18200
F896        F  0.53207764  0.32408131  0.89748032    -0.19500
C897        C  0.72435714  0.29643157  0.84167475    -0.21000
C898        C  0.68226902  0.27634791  0.84612119    -0.09000
C899        C  0.67248666  0.24095087  0.82116979     0.29900
C900        C  0.71223316  0.22008656  0.81166076    -0.21000
C901        C  0.75942526  0.23639032  0.82396182    -0.09000
C902        C  0.76419462  0.27593756  0.83233514     0.29900
F903        F  0.80933991  0.29279919  0.84079666    -0.19500
H904        H  0.73096616  0.32476145  0.85765355     0.18200
H905        H  0.70789851  0.18984440  0.80345416     0.18200
F906        F  0.62966986  0.22238961  0.82102619    -0.19500
C907        C  0.80654530  0.42148270  0.94121681    -0.21000
C908        C  0.84215764  0.44630184  0.97163213    -0.09000
C909        C  0.85107333  0.44344437  0.02899850     0.29900
C910        C  0.82731003  0.41598291  0.05390765    -0.21000
C911        C  0.79713899  0.38861831  0.02347315    -0.09000
C912        C  0.78353249  0.39365987  0.96677802     0.29900
F913        F  0.75260896  0.36840189  0.93620669    -0.19500
H914        H  0.79396260  0.42512112  0.89757745     0.18200
H915        H  0.83735243  0.41324436  0.09768605     0.18200
F916        F  0.87904182  0.46927816  0.06148125    -0.19500
C917        C  0.99738315  0.29957350  0.09840580    -0.21000
C918        C  0.00238416  0.33052582  0.06336106    -0.09000
C919        C  0.97049711  0.33191699  0.01048097     0.29900
C920        C  0.92970439  0.30662728  0.99724485    -0.21000
C921        C  0.91624255  0.28466523  0.03926743    -0.09000
C922        C  0.95648261  0.27508221  0.08467070     0.29900
F923        F  0.95391789  0.24474429  0.11873451    -0.19500
H924        H  0.02449602  0.29501769  0.13726741     0.18200
H925        H  0.90228553  0.31176010  0.95869657     0.18200
F926        F  0.97578482  0.35953661  0.97355280    -0.19500
C927        C  0.81161082  0.37045496  0.21775289    -0.21000
C928        C  0.76915663  0.35563692  0.23025314    -0.09000
C929        C  0.76262369  0.31568708  0.23016439     0.29900
C930        C  0.78411143  0.29441103  0.19681191    -0.21000
C931        C  0.81751574  0.31231450  0.17178321    -0.09000
C932        C  0.83682315  0.34814823  0.18900558     0.29900
F933        F  0.87361508  0.36398263  0.16979567    -0.19500
H934        H  0.81902399  0.40090903  0.22040653     0.18200
H935        H  0.77023625  0.26613130  0.18540162     0.18200
F936        F  0.72507921  0.30009181  0.24838571    -0.19500
C937        C  0.88141528  0.79708145  0.06710469     0.86800
C938        C  0.87403603  0.78165504  0.12170655    -0.53400
C939        C  0.83078465  0.79456726  0.13111089     0.09800
C940        C  0.79755245  0.82103458  0.08510283     0.20700
C941        C  0.83268689  0.78535102  0.02410142    -0.54100
C942        C  0.78797153  0.79709165  0.03463189     0.09900
C943        C  0.87622884  0.84020598  0.07138977    -0.53700
C944        C  0.83233479  0.85325980  0.07675223     0.10400
H945        H  0.90095835  0.76499596  0.15263982     0.14900
H946        H  0.76368449  0.83228990  0.09488132     0.00700
H947        H  0.83436958  0.76874689  0.98968063     0.15300
H948        H  0.90419969  0.86041507  0.06534858     0.15000
In949      In  0.61342773  0.89448264  0.15370128     1.36900
C950        C  0.70001452  0.85967145  0.18287636     0.77900
O951        O  0.63934005  0.94233364  0.10234900    -0.60500
O952        O  0.61789187  0.96032475  0.17024272    -0.51400
C953        C  0.53748416  0.86093372  0.08489914     0.70600
O954        O  0.58113958  0.86048302  0.07887060    -0.46300
C955        C  0.59400010  0.85704047  0.23946455     0.75300
O956        O  0.67007955  0.85646664  0.13677798    -0.58100
O957        O  0.58699305  0.89314302  0.22992697    -0.48200
O958        O  0.68880683  0.88498841  0.21179143    -0.54600
C959        C  0.63469372  0.97057026  0.13040336     0.85500
O960        O  0.53078155  0.88473349  0.11862040    -0.56500
O961        O  0.60865625  0.83987565  0.20412608    -0.59800
C962        C  0.85164488  0.55898492  0.90563074     0.30300
C963        C  0.86855939  0.98725324  0.96811734     0.30300
C964        C  0.85583774  0.52583039  0.86600818    -0.05800
C965        C  0.89292560  0.54760610  0.95565114    -0.06600
C966        C  0.80430836  0.54835666  0.92565800    -0.06500
C967        C  0.87521067  0.98914816  0.91119746    -0.05900
C968        C  0.89303710  0.50964283  0.97572127    -0.06600
C969        C  0.80200695  0.50918624  0.93968157    -0.06500
C970        C  0.88300141  0.96224636  0.87644507    -0.31900
N971        N  0.88701148  0.98062678  0.83038590     0.14600
C972        C  0.86260063  0.52036585  0.81436753    -0.31900
H973        H  0.86573280  0.54280264  0.78499537     0.16500
C974        C  0.94288499  0.50006951  0.99906160    -0.30900
N975        N  0.97096484  0.53155867  0.99691340     0.13300
C976        C  0.94088909  0.56025766  0.96963607    -0.30900
C977        C  0.76988321  0.50363927  0.97158648    -0.31200
N978        N  0.76053189  0.53730092  0.98925991     0.13800
H979        H  0.76260805  0.47668363  0.98999613     0.16500
C980        C  0.78123438  0.56510048  0.96240487    -0.31200
H981        H  0.78535099  0.59479762  0.97328547     0.16500
H982        H  0.95340751  0.58689566  0.95493277     0.16500
H983        H  0.88582821  0.93138706  0.88410460     0.16500
H984        H  0.97443884  0.97884579  0.03755844     0.16500
C985        C  0.64173370  0.78334920  0.97356739     0.86800
C986        C  0.69015220  0.80014044  0.01157188    -0.53400
C987        C  0.73511130  0.78653924  0.00300293     0.09800
C988        C  0.72614728  0.75679422  0.95873570     0.20700
C989        C  0.64770185  0.79139963  0.91596177    -0.54100
C990        C  0.69082220  0.77720592  0.90809942     0.09900
C991        C  0.65004243  0.74012684  0.98140904    -0.53700
C992        C  0.69358460  0.72633043  0.97630012     0.10400
H993        H  0.68822437  0.82051375  0.04189025     0.14900
H994        H  0.76027027  0.74414879  0.95104545     0.00700
H995        H  0.61844259  0.80201910  0.88148099     0.15300
H996        H  0.62372247  0.72048437  0.99238916     0.15000
In997      In  0.87742513  0.67702577  0.86533388     1.36900
C998        C  0.78725641  0.70177818  0.81999216     0.77900
O999        O  0.88586936  0.73318633  0.82116991    -0.60500
O1000       O  0.91796254  0.68182407  0.80044496    -0.51400
C1001       C  0.94644987  0.71312896  0.93843299     0.70600
O1002       O  0.90029269  0.71949613  0.93172248    -0.46300
C1003       C  0.85853198  0.60141263  0.88844392     0.75300
O1004       O  0.80704547  0.70271900  0.87052147    -0.58100
O1005       O  0.87521820  0.61186535  0.84853421    -0.48200
O1006       O  0.81162487  0.68419815  0.79285476    -0.54600
C1007       C  0.90995842  0.71798760  0.79183349     0.85500
O1008       O  0.95669091  0.68333442  0.91621393    -0.56500
O1009       O  0.85393478  0.62920634  0.91734278    -0.59800
C1010       C  0.65505091  0.59182462  0.08012738     0.30300
C1011       C  0.65499202  0.51843229  0.12223436     0.30300
C1012       C  0.64917188  0.58931210  0.13722151    -0.05800
C1013       C  0.61280461  0.56580536  0.04999671    -0.06600
C1014       C  0.70333030  0.56863261  0.08700287    -0.06500
C1015       C  0.64911269  0.55215934  0.16048899    -0.05900
C1016       C  0.61394322  0.52828377  0.07153033    -0.06600
C1017       C  0.70211439  0.52949375  0.10203478    -0.06500
C1018       C  0.64242252  0.55832526  0.21209083    -0.31900
N1019       N  0.63929031  0.59721846  0.21891316     0.14600
C1020       C  0.64295069  0.61587974  0.17294059    -0.31900
H1021       H  0.64097640  0.64679509  0.16600788     0.16500
C1022       C  0.56699548  0.51382337  0.05544686    -0.30900
N1023       N  0.53650952  0.54136009  0.02566815     0.13300
C1024       C  0.56324941  0.57364207  0.02391567    -0.30900
C1025       C  0.71926327  0.00996114  0.06343575    -0.31200
N1026       N  0.74481677  0.54054217  0.03737080     0.13800
H1027       H  0.72222475  0.97960510  0.05715279     0.16500
C1028       C  0.73506367  0.57420428  0.05466452    -0.31200
H1029       H  0.74158304  0.60109568  0.03553241     0.16500
H1030       H  0.54744765  0.60181495  0.00954161     0.16500
H1031       H  0.64066540  0.53623337  0.24249528     0.16500
H1032       H  0.53974463  0.98085394  0.05958139     0.16500
C1033       C  0.89217410  0.55530080  0.50654588     0.86800
C1034       C  0.88904541  0.59561317  0.47807053    -0.53400
C1035       C  0.93260805  0.61277622  0.48203727     0.09800
C1036       C  0.97528056  0.59212729  0.52450916     0.20700
C1037       C  0.93434319  0.53347224  0.48958680    -0.54100
C1038       C  0.97984842  0.55250034  0.50184746     0.09900
C1039       C  0.91707349  0.55982818  0.56662921    -0.53700
C1040       C  0.95511392  0.58489097  0.57543892     0.10400
H1041       H  0.85613436  0.60638542  0.44756543     0.14900
H1042       H  0.50980003  0.61195520  0.52343544     0.00700
H1043       H  0.92848540  0.50546654  0.47241730     0.15300
H1044       H  0.90148029  0.55023585  0.59932080     0.15000
In1045     In  0.63140805  0.65432736  0.35504576     1.36900
C1046       C  0.53659637  0.65069768  0.33820322     0.77900
O1047       O  0.61409306  0.69532915  0.41743951    -0.60500
O1048       O  0.64221245  0.71938200  0.35459272    -0.51400
C1049       C  0.71027315  0.61487689  0.41437468     0.70600
O1050       O  0.66759011  0.61216827  0.42306125    -0.46300
C1051       C  0.63515013  0.61725851  0.26611887     0.75300
O1052       O  0.56655041  0.62946560  0.37395284    -0.58100
O1053       O  0.64495970  0.65277801  0.27186792    -0.48200
O1054       O  0.55506396  0.67103037  0.30659876    -0.54600
C1055       C  0.62359565  0.72584934  0.39404566     0.85500
O1056       O  0.71389225  0.64121999  0.38017103    -0.56500
O1057       O  0.62161171  0.60109353  0.30481403    -0.59800
C1058       C  0.91022273  0.81413635  0.63300264     0.30300
C1059       C  0.91142480  0.73943315  0.60447566     0.30300
C1060       C  0.92540726  0.78312918  0.68085148    -0.05800
C1061       C  0.85972462  0.79874871  0.59997099    -0.06600
C1062       C  0.94650261  0.80368428  0.59455739    -0.06500
C1063       C  0.92873754  0.74612064  0.66438198    -0.05900
C1064       C  0.85993679  0.76051147  0.58527783    -0.06600
C1065       C  0.94359456  0.76524094  0.58049660    -0.06500
C1066       C  0.93030827  0.72029142  0.70639007    -0.31900
N1067       N  0.92340144  0.73897065  0.74834464     0.14600
C1068       C  0.91858467  0.77738555  0.73338913    -0.31900
H1069       H  0.90633106  0.79892859  0.75666038     0.16500
C1070       C  0.81472318  0.75530927  0.54736264    -0.30900
N1071       N  0.78647066  0.78835193  0.54081026     0.13300
C1072       C  0.81399795  0.81517266  0.57227373    -0.30900
C1073       C  0.97198142  0.75705685  0.54576869    -0.31200
N1074       N  0.99719545  0.78810024  0.53828333     0.13800
H1075       H  0.97475294  0.72986692  0.52788148     0.16500
C1076       C  0.98190232  0.81735907  0.56663441    -0.31200
H1077       H  0.99519541  0.84646896  0.56734890     0.16500
H1078       H  0.80287292  0.84495638  0.57296609     0.16500
H1079       H  0.92846778  0.68934168  0.70376167     0.16500
H1080       H  0.80448390  0.73008308  0.52399088     0.16500
C1081       C  0.62069749  0.53033319  0.49704523     0.86800
C1082       C  0.57717277  0.55673304  0.50405284    -0.53400
C1083       C  0.53043118  0.53950831  0.48819420     0.09800
C1084       C  0.54100872  0.99418213  0.50232542     0.20700
C1085       C  0.62287241  0.98731666  0.56057480    -0.54100
C1086       C  0.57731907  0.97269199  0.55015660     0.09900
C1087       C  0.60871568  0.02170330  0.47112768    -0.53700
C1088       C  0.56878029  0.99861389  0.45680857     0.10000
H1089       H  0.58302946  0.58531085  0.51950003     0.14900
H1090       H  0.99095126  0.98185702  0.45321240     0.00700
H1091       H  0.65152516  0.97590097  0.59560406     0.15300
H1092       H  0.62963788  0.03025982  0.44241064     0.15000
In1093     In  0.89347675  0.92727406  0.69078452     1.36900
C1094       C  0.97843179  0.94793050  0.67857482     0.77900
O1095       O  0.90697788  0.97765291  0.74590043    -0.60500
O1096       O  0.88213520  0.92570058  0.77588828    -0.51400
C1097       C  0.81009831  0.96349629  0.63642635     0.70600
O1098       O  0.84995687  0.96421411  0.62158668    -0.46300
C1099       C  0.90412921  0.85504948  0.65308330     0.75300
O1100       O  0.93818433  0.96565346  0.65587516    -0.58100
O1101       O  0.90898531  0.86210159  0.70252490    -0.48200
O1102       O  0.97638199  0.92156755  0.71313637    -0.54600
C1103       C  0.89252571  0.96093930  0.78342172     0.85500
O1104       O  0.81060919  0.94006180  0.67573585    -0.56500
O1105       O  0.88965855  0.88445098  0.62224683    -0.59800
C1106       C  0.61320504  0.84251855  0.43688347     0.30300
C1107       C  0.61575247  0.76695082  0.41183552     0.30300
C1108       C  0.59854431  0.83439790  0.37736119    -0.05800
C1109       C  0.66471571  0.82169579  0.45865030    -0.06600
C1110       C  0.57954014  0.81691483  0.46011483    -0.06500
C1111       C  0.60075440  0.79693099  0.36275116    -0.05900
C1112       C  0.66545261  0.78319581  0.44522845    -0.06600
C1113       C  0.57859995  0.77799020  0.44839711    -0.06500
C1114       C  0.59675737  0.80011543  0.30667857    -0.31900
N1115       N  0.59019766  0.83816985  0.28936218     0.14600
C1116       C  0.59084834  0.85870733  0.33256074    -0.31900
H1117       H  0.59099640  0.88982724  0.33227354     0.16500
C1118       C  0.71092849  0.76716756  0.47378694    -0.30900
N1119       N  0.73820405  0.79441063  0.50452711     0.13300
C1120       C  0.70990767  0.82754730  0.49661432    -0.30900
C1121       C  0.54338373  0.76368647  0.47567309    -0.31200
N1122       N  0.52495859  0.79300471  0.50102779     0.13800
H1123       H  0.53258640  0.73401427  0.47698508     0.16500
C1124       C  0.54824126  0.82500061  0.49212080    -0.31200
H1125       H  0.54180088  0.85259901  0.50662359     0.16500
H1126       H  0.72023799  0.85334204  0.51869103     0.16500
H1127       H  0.60177486  0.77697686  0.28147272     0.16500
H1128       H  0.72202674  0.73729513  0.47401401     0.16500
C1129       C  0.55260798  0.89773224  0.42426929    -0.21000
C1130       C  0.60330228  0.88486927  0.44060619    -0.09000
C1131       C  0.63984636  0.91198263  0.43933020     0.29900
C1132       C  0.62675233  0.95076710  0.43268964    -0.21000
C1133       C  0.57730430  0.96335614  0.42942884    -0.09000
C1134       C  0.53974480  0.93641570  0.41861809     0.29900
F1135       F  0.49085949  0.94737950  0.40567607    -0.19500
H1136       H  0.52241569  0.87764779  0.41405937     0.18200
H1137       H  0.65653531  0.97060856  0.43432696     0.18200
F1138       F  0.68734923  0.90134113  0.44127471    -0.19500
C1139       C  0.74376719  0.01353860  0.63766342    -0.21000
C1140       C  0.76706870  0.98867934  0.60911212    -0.09000
C1141       C  0.75258984  0.99103953  0.55275284     0.29900
C1142       C  0.71318546  0.01523432  0.52550669    -0.21000
C1143       C  0.68279053  0.03478928  0.55299787    -0.09000
C1144       C  0.69714324  0.54260764  0.57230705     0.29900
F1145       F  0.67326431  0.56552630  0.59958415    -0.19500
H1146       H  0.74684127  0.51806401  0.64602682     0.18200
H1147       H  0.70408291  0.01502941  0.48204252     0.18200
F1148       F  0.77651288  0.96967864  0.52357272    -0.19500
C1149       C  0.05035540  0.49323606  0.61361801    -0.21000
C1150       C  0.56215829  0.96121744  0.59931646    -0.09000
C1151       C  0.05110521  0.93112862  0.58418724     0.29900
C1152       C  0.03667867  0.92370416  0.63179292    -0.21000
C1153       C  0.02133357  0.95433280  0.65806263    -0.09000
C1154       C  0.02879203  0.99217392  0.64240270     0.29900
F1155       F  0.01859404  0.51383965  0.68525421    -0.19500
H1156       H  0.55912776  0.52803373  0.59594792     0.18200
H1157       H  0.03154566  0.89419910  0.64408497     0.18200
F1158       F  0.06522145  0.90188662  0.55798095    -0.19500
C1159       C  0.89745243  0.63156692  0.60134520    -0.21000
C1160       C  0.94693841  0.61930050  0.60415555    -0.09000
C1161       C  0.98458415  0.64600411  0.61542239     0.29900
C1162       C  0.97182765  0.68457139  0.61279326    -0.21000
C1163       C  0.92108672  0.69747435  0.59815074    -0.09000
C1164       C  0.88444893  0.67022157  0.59751794     0.29900
F1165       F  0.83709373  0.68044333  0.59682138    -0.19500
H1166       H  0.86744362  0.61172029  0.59729766     0.18200
H1167       H  0.00212722  0.70456628  0.62325887     0.18200
F1168       F  0.53063929  0.63931431  0.61486270    -0.19500
C1169       C  0.81477482  0.53924715  0.43712711    -0.21000
C1170       C  0.83776106  0.54276489  0.49301350    -0.09000
C1171       C  0.80815327  0.56091743  0.52294465     0.29900
C1172       C  0.76869401  0.58586731  0.49721097    -0.21000
C1173       C  0.75216369  0.58837365  0.44089854    -0.09000
C1174       C  0.77338919  0.56310487  0.41087450     0.29900
F1175       F  0.75602046  0.56311630  0.35610390    -0.19500
H1176       H  0.83443661  0.52437471  0.41229164     0.18200
H1177       H  0.75010534  0.60244081  0.52143243     0.18200
F1178       F  0.81860026  0.55631527  0.57754192    -0.19500
C1179       C  0.95926771  0.66540668  0.42762612    -0.21000
C1180       C  0.44090993  0.63249776  0.42120579    -0.09000
C1181       C  0.43663073  0.60946102  0.37594484     0.29900
C1182       C  0.45881393  0.62091398  0.33539783    -0.21000
C1183       C  0.48541348  0.65481479  0.34034473    -0.09000
C1184       C  0.47811554  0.68187113  0.37691839     0.29900
F1185       F  0.50012455  0.71656136  0.37827607    -0.19500
H1186       H  0.96319165  0.68435921  0.46086416     0.18200
H1187       H  0.46307189  0.60024864  0.30624708     0.18200
F1188       F  0.41687738  0.57389981  0.37403134    -0.19500
C1189       C  0.67498037  0.65930540  0.96823241    -0.21000
C1190       C  0.70560725  0.68692516  0.99765314    -0.09000
C1191       C  0.71916631  0.68289179  0.05439385     0.29900
C1192       C  0.69590869  0.65590523  0.08102970    -0.21000
C1193       C  0.66080114  0.63028014  0.05173585    -0.09000
C1194       C  0.65171815  0.63212932  0.99423307     0.29900
F1195       F  0.62408481  0.60569520  0.96263183    -0.19500
H1196       H  0.66435012  0.66158551  0.92434249     0.18200
H1197       H  0.70837983  0.65320433  0.12478279     0.18200
F1198       F  0.75048515  0.70837850  0.08384330    -0.19500
C1199       C  0.57578734  0.76913845  0.02455091    -0.21000
C1200       C  0.58861655  0.79060861  0.98171883    -0.09000
C1201       C  0.54852969  0.79840033  0.93538643     0.29900
C1202       C  0.50814294  0.77339372  0.92303273    -0.21000
C1203       C  0.50358411  0.74335608  0.95963491    -0.09000
C1204       C  0.53557036  0.74323907  0.01240255     0.29900
F1205       F  0.01997693  0.70746726  0.04316873    -0.19500
H1206       H  0.60339786  0.76483446  0.06311541     0.18200
H1207       H  0.48095278  0.77692407  0.88407259     0.18200
F1208       F  0.54997217  0.82810047  0.89992204    -0.19500
C1209       C  0.72849237  0.78521227  0.83154042    -0.21000
C1210       C  0.69330599  0.76733401  0.85393441    -0.09000
C1211       C  0.67344801  0.73208066  0.83447542     0.29900
C1212       C  0.69862412  0.71039644  0.80500885    -0.21000
C1213       C  0.74257847  0.72465884  0.79555041    -0.09000
C1214       C  0.75106091  0.76432897  0.79876566     0.29900
F1215       F  0.79125108  0.77936760  0.78504282    -0.19500
H1216       H  0.74314732  0.81287888  0.84513686     0.18200
H1217       H  0.69007762  0.68022966  0.80013066     0.18200
F1218       F  0.63617281  0.71578043  0.85238640    -0.19500
C1219       C  0.82986187  0.92234171  0.96913131    -0.21000
C1220       C  0.86374301  0.94902354  0.99785606    -0.09000
C1221       C  0.87212676  0.94806070  0.05527479     0.29900
C1222       C  0.84951872  0.92072819  0.08186767    -0.21000
C1223       C  0.81994049  0.89224998  0.05310029    -0.09000
C1224       C  0.80678687  0.89544138  0.99617565     0.29900
F1225       F  0.77574899  0.86966706  0.96684253    -0.19500
H1226       H  0.81786560  0.92432178  0.92534459     0.18200
H1227       H  0.86027566  0.91879273  0.12579806     0.18200
F1228       F  0.89934341  0.97497007  0.08629897    -0.19500
C1229       C  0.01840878  0.80302692  0.10689887    -0.21000
C1230       C  0.02152548  0.83479350  0.07246386    -0.09000
C1231       C  0.98458245  0.83977452  0.02328597     0.29900
C1232       C  0.94225802  0.81615792  0.01278404    -0.21000
C1233       C  0.93297215  0.79183960  0.05504423    -0.09000
C1234       C  0.97518638  0.78101003  0.09768781     0.29900
F1235       F  0.97396874  0.75118320  0.13292392    -0.19500
H1236       H  0.04816977  0.79685465  0.14330937     0.18200
H1237       H  0.91183881  0.82376496  0.97756928     0.18200
F1238       F  0.98727969  0.86916447  0.98774918    -0.19500
C1239       C  0.79065787  0.84787372  0.21958362    -0.21000
C1240       C  0.74256444  0.83355294  0.20162398    -0.09000
C1241       C  0.73610547  0.79456663  0.18989137     0.29900
C1242       C  0.77656523  0.77296844  0.18417010    -0.21000
C1243       C  0.82065185  0.79194275  0.18438907    -0.09000
C1244       C  0.83078337  0.82590726  0.21293815     0.29900
F1245       F  0.87584931  0.84259933  0.21972057    -0.19500
H1246       H  0.79628710  0.87746543  0.23098613     0.18200
H1247       H  0.76975589  0.74514512  0.16672628     0.18200
F1248       F  0.68985146  0.77935354  0.17590657    -0.19500
loop_ 
_geom_bond_atom_site_label_1 
_geom_bond_atom_site_label_2 
_geom_bond_distance 
_geom_bond_site_symmetry_2 
_ccdc_geom_bond_type 
C1            C2   1.538       .  S
C1            C7   1.519       .  S
C1            C5   1.574       .  S
C1          C297   1.552       .  S
C2            H9   1.080       .  S
C2            C3   1.358       .  D
C3            C4   1.553       .  S
C3          C307   1.459       .  S
C4            C8   1.528       .  S
C4            C6   1.530       .  S
C4           H10   1.107       .  S
C5           H11   1.083   1_554  S
C5            C6   1.399       .  D
C6           C51   1.531       .  S
C7           H12   1.088       .  S
C7            C8   1.338       .  D
C8          C287   1.462       .  S
In13         O15   2.328       .  S
In13         O16   2.353       .  S
In13         O24   2.266       .  S
In13         O18   2.290       .  S
In13         O20   2.192       .  S
In13         O21   2.256       .  S
In13         O22   2.241       .  S
In13         O25   2.297       .  S
C14          O20   1.264       .  A
C14          O22   1.260       .  A
C14         C304   1.451       .  S
O15          C23   1.266       .  A
O16          C23   1.269       .  A
C17          O24   1.265       .  A
C17          O18   1.264       .  A
C17         C918   1.495       .  S
C19          O21   1.276       .  A
C19          O25   1.255       .  A
C19         N179   1.448       .  S
C23         C387   1.568       .  S
C26          C28   1.586       .  S
C26          C30   1.574       .  S
C26          C29   1.513       .  S
C26          C67   1.551       .  S
C27          C31   1.511       .  S
C27         C284   1.529       .  S
C27         C345   1.514       .  S
C27         C344   1.541       .  S
C28          C36   1.402       .  A
C28         C343   1.400   1_545  A
C29          C40   1.367       .  A
C29          C32   1.398       .  A
C30          C44   1.409       .  A
C30          C33   1.405       .  A
C31          C34   1.367       .  A
C31         C340   1.406       .  A
C32         C339   1.546   1_545  S
C32          C38   1.384       .  A
C33         C339   1.522   1_545  S
C33          C41   1.367       .  A
C34          N35   1.348       .  A
C34          H47   1.083       .  S
N35         C167   1.443       .  S
N35         C348   1.375       .  A
C36         N347   1.375   1_545  A
C36          H37   1.082       .  S
C38          N39   1.357       .  A
C38         H360   1.082   1_546  S
N39          C40   1.345       .  A
N39         N711   1.405   1_556  S
C40          H46   1.081       .  S
C41          N42   1.320       .  A
C41          H43   1.078   1_545  S
N42          C44   1.380       .  A
N42          N90   1.417   1_556  S
C44          H45   1.081       .  S
H48         C350   1.081       .  S
C49          C50   1.568   1_556  S
C49          C55   1.520       .  S
C49          C53   1.539       .  S
C49         C264   1.564       .  S
C50          H57   1.082       .  S
C50          C51   1.405       .  D
C51          C52   1.540   1_554  S
C52          C56   1.528       .  S
C52          C54   1.547       .  S
C52          H58   1.108       .  S
C53          H59   1.082       .  S
C53          C54   1.353       .  D
C54         C274   1.458       .  S
C55          H60   1.086   1_556  S
C55          C56   1.338       .  D
C56         C254   1.460   1_556  S
In61         O63   2.280       .  S
In61         O64   2.231       .  S
In61         O72   2.256       .  S
In61         O66   2.265       .  S
In61         O68   2.178       .  S
In61         O69   2.318       .  S
In61         O70   2.235       .  S
In61         O73   2.297       .  S
C62          O68   1.270       .  A
C62          O70   1.260       .  A
C62         C277   1.451       .  S
O63          C71   1.258       .  A
O64          C71   1.278       .  A
C65          O72   1.267       .  A
C65          O66   1.267       .  A
C65         C891   1.488       .  S
C67          O69   1.269       .  A
C67          O73   1.267       .  A
C71         N131   1.444       .  S
C74          C76   1.508       .  S
C74          C78   1.523       .  S
C74          C77   1.548       .  S
C74         C257   1.529       .  S
C75          C79   1.591       .  S
C75          C81   1.575       .  S
C75          C80   1.513       .  S
C75         C335   1.551   1_545  S
C76          C84   1.363       .  A
C76          C79   1.403       .  A
C77          C88   1.385       .  A
C77          C80   1.396       .  A
C78          C92   1.366       .  A
C78          C81   1.403       .  A
C79          C82   1.404       .  A
C80          C86   1.368       .  A
C81         C401   1.412       .  A
C82          N83   1.376       .  A
C82          H95   1.082       .  S
N83         C115   1.445       .  S
N83          C84   1.348       .  A
C84          H85   1.083       .  S
C86          N87   1.344       .  A
C86         H408   1.081   1_545  S
N87          C88   1.358       .  A
N87         N663   1.406   1_455  S
C88          H94   1.081       .  S
C89         C393   1.414       .  A
C89         N402   1.386       .  A
C89          H91   1.081       .  S
N90          C92   1.319       .  A
N90         C401   1.380       .  A
C92          H93   1.077       .  S
H96         C398   1.082       .  S
C97          C98   1.545       .  S
C97         C103   1.525       .  S
C97         C101   1.557       .  S
C97         C234   1.535       .  S
C98         H105   1.088       .  S
C98          C99   1.335       .  D
C99         C100   1.533       .  S
C99         C868   1.474       .  S
C100        C104   1.563       .  S
C100        C102   1.529       .  S
C100        H730   1.105       .  S
C101        H107   1.082       .  S
C101        C102   1.400       .  D
C102        C771   1.512       .  S
C103        H108   1.081       .  S
C103        C104   1.359       .  D
C104        C224   1.478       .  S
H106        C724   1.107   1_455  S
In109       O111   2.319       .  S
In109       O112   2.289       .  S
In109       O120   2.250       .  S
In109       O114   2.254       .  S
In109       O116   2.175       .  S
In109       O117   2.248       .  S
In109       O118   2.211       .  S
In109       O121   2.276       .  S
C110        O116   1.271       .  A
C110        O118   1.262       .  A
C110        C247   1.443   1_455  S
O111        C119   1.263       .  A
O112        C119   1.274       .  A
C113        O120   1.264       .  A
C113        O114   1.266       .  A
C113        C237   1.482       .  S
C115        O117   1.274       .  A
C115        O121   1.262       .  A
C119        C171   1.549       .  S
C122        C124   1.572       .  S
C122        C126   1.630       .  S
C122        C125   1.536       .  S
C122        C163   1.552       .  S
C123        C127   1.517       .  S
C123        C129   1.493       .  S
C123        C128   1.557       .  S
C123        C227   1.506       .  S
C124        C132   1.419       .  A
C124        C127   1.384       .  A
C125        C136   1.381       .  A
C125        C128   1.398       .  A
C126        C140   1.433       .  A
C126        C129   1.395       .  A
C127        C130   1.366       .  A
C128        C134   1.392       .  A
C129        C137   1.370       .  A
C130        N131   1.329       .  A
C130        H143   1.082       .  S
N131        C132   1.374       .  A
C132        H133   1.082       .  S
C134        N135   1.368       .  A
C134        H144   1.081       .  S
N135        C136   1.356       .  A
N135        N183   1.422       .  S
C136        H142   1.081       .  S
C137        N138   1.329       .  A
C137        H139   1.077       .  S
N138        C140   1.399       .  A
N138        N810   1.436       .  S
C140        H141   1.081       .  S
C145        C146   1.563       .  S
C145        C463   1.531       .  S
C145        C461   1.544   1_545  S
C145        C519   1.537       .  S
C146        H153   1.083       .  S
C146        C147   1.401       .  D
C147        C460   1.534   1_545  S
C147        C726   1.514   1_455  S
C148        C152   1.560       .  S
C148        C150   1.529       .  S
C148        C459   1.534       .  S
C148        H778   1.102   1_455  S
C149        C457   1.543       .  S
C149        H155   1.089       .  S
C149        C150   1.332       .  D
C150        C214   1.465       .  S
C151        C457   1.531       .  S
C151        H156   1.084       .  S
C151        C152   1.358       .  D
C152        C197   1.488       .  S
H154        C772   1.099       .  S
In157       O159   2.266       .  S
In157       O160   2.269       .  S
In157       O168   2.272       .  S
In157       O162   2.231       .  S
In157       O164   2.165       .  S
In157       O165   2.298       .  S
In157       O166   2.220       .  S
In157       O169   2.323       .  S
C158        O164   1.261       .  A
C158        O166   1.259       .  A
C158        C217   1.435       .  S
O159        C167   1.257       .  A
O160        C167   1.272       .  A
C161        O168   1.268       .  A
C161        O162   1.261       .  A
C161        C204   1.480       .  S
C163        O165   1.268       .  A
C163        O169   1.263       .  A
C170        C172   1.512       .  S
C170        C174   1.509       .  S
C170        C173   1.557       .  S
C170        C194   1.511       .  S
C171        C175   1.574       .  S
C171        C177   1.620       .  S
C171        C176   1.537       .  S
C172        C180   1.368       .  A
C172        C175   1.379       .  A
C173        C184   1.393       .  A
C173        C176   1.397       .  A
C174        C188   1.374       .  A
C174        C177   1.398       .  A
C175        C178   1.416       .  A
C176        C182   1.380       .  A
C177        C185   1.426       .  A
C178        N179   1.379       .  A
C178        H191   1.082       .  S
N179        C180   1.335       .  A
C180        H181   1.083       .  S
C182        N183   1.357       .  A
C182        H192   1.082       .  S
N183        C184   1.369       .  A
C184        H190   1.081       .  S
C185        N186   1.393       .  A
C185        H187   1.080       .  S
N186        C188   1.333       .  A
N186        N762   1.436   1_455  S
C188        H189   1.074       .  S
C193        C194   1.423       .  A
C193        C198   1.384       .  A
C193        H200   1.082       .  S
C194        C195   1.401       .  A
C195        C196   1.388       .  A
C195        F202   1.354       .  S
C196        C197   1.417       .  A
C196        H201   1.077       .  S
C197        C198   1.391       .  A
C198        F199   1.358   1_455  S
C203        C204   1.409       .  A
C203        C520   1.415       .  A
C203        H522   1.083       .  S
C204        C205   1.393       .  A
C205        C206   1.394       .  A
C205        F212   1.358       .  S
C206        C207   1.419       .  A
C206        H211   1.076       .  S
C207        C457   1.535       .  S
C207        C520   1.419       .  A
C208        C515   1.413       .  A
C208        C519   1.419       .  A
C208        F209   1.356       .  S
H210        C515   1.083       .  S
C213       C1150   1.410       .  A
C213        C530   1.383       .  A
C213        H844   1.080   1_565  S
C214       C1149   1.407       .  A
C214        C839   1.393       .  A
C215        C216   1.392       .  A
C215        C838   1.393       .  A
C215        F222   1.351       .  S
C216        C217   1.403       .  A
C216        H221   1.084       .  S
C217        C218   1.394       .  A
C218        C525   1.380       .  A
C218        F531   1.358       .  S
F219        C530   1.358   1_545  S
H220        C837   1.079   1_545  S
C223        C224   1.418       .  A
C223        C228   1.384       .  A
C223        H230   1.076       .  S
C224        C225   1.388       .  A
C225        C226   1.381       .  A
C225        F856   1.358       .  S
C226        C227   1.423       .  A
C226        H231   1.082       .  S
C227        C228   1.398       .  A
C228        F229   1.355       .  S
F232        C849   1.357   1_455  S
C233        C234   1.417       .  A
C233        C238   1.414       .  A
C233        H240   1.083       .  S
C234        C235   1.423       .  A
C235        C236   1.398       .  A
C235        F242   1.353       .  S
C236        C237   1.393       .  A
C236        H241   1.083       .  S
C237        C238   1.411       .  A
C238        F239   1.357       .  S
C243        C868   1.396       .  A
C243        C872   1.397       .  A
C243        H250   1.079       .  S
C244        C723   1.471       .  S
C244        C245   1.417       .  A
C244        C867   1.393       .  A
C245        C246   1.386       .  A
C245        F252   1.356       .  S
C246        C247   1.389       .  A
C246        H251   1.084       .  S
C247        C248   1.403       .  A
C248        C867   1.393       .  A
C248        F249   1.354   1_655  S
C253        C254   1.397   1_556  A
C253        C258   1.392   1_556  A
C253        H260   1.080       .  S
C254        C255   1.402       .  A
C255        C256   1.400       .  A
C255        F262   1.356       .  S
C256        C257   1.414       .  A
C256        H261   1.081       .  S
C257        C258   1.423       .  A
C258        F259   1.355   1_554  S
C263        C264   1.423   1_554  A
C263        C268   1.418       .  A
C263        H270   1.084       .  S
C264        C265   1.411       .  A
C265        C266   1.405       .  A
C265        F272   1.357       .  S
C266        C267   1.406       .  A
C266        H271   1.083   1_455  S
C267        C689   1.493   1_455  S
C267        C268   1.406   1_556  A
C268        F893   1.356       .  S
F269        C892   1.357       .  S
C273        C274   1.396       .  A
C273        C278   1.394       .  A
C273        H280   1.083       .  S
C274        C275   1.404       .  A
C275        C276   1.392       .  A
C275        F282   1.356       .  S
C276        C277   1.397       .  A
C276        H281   1.084       .  S
C277        C278   1.405       .  A
C278        F279   1.358       .  S
C283        C284   1.412       .  A
C283        C288   1.399       .  A
C283        H290   1.080       .  S
C284        C285   1.425   1_556  A
C285        C286   1.393       .  A
C285        F292   1.356       .  S
C286        C287   1.397       .  A
C286        H291   1.084       .  S
C287        C288   1.407   1_554  A
C288        F289   1.357       .  S
C293        C294   1.405       .  A
C293        C298   1.403       .  A
C293        H300   1.084       .  S
C294        C641   1.488       .  S
C294        C295   1.405       .  A
C295        C296   1.414       .  A
C295        F302   1.357   1_554  S
C296        C297   1.423       .  A
C296        H301   1.084   1_554  S
C297        C298   1.412       .  A
C298        F299   1.355       .  S
C303        C304   1.397       .  A
C303        C308   1.395       .  A
C303        H310   1.084       .  S
C304        C305   1.404       .  A
C305        C306   1.389       .  A
C305        F312   1.358       .  S
C306        C307   1.395       .  A
C306        H311   1.082       .  S
C307        C308   1.406       .  A
C308        F309   1.358       .  S
C313        C314   1.539       .  S
C313        C319   1.520       .  S
C313        C317   1.573       .  S
C313        C609   1.565       .  S
C314        H321   1.081       .  S
C314        C315   1.351       .  D
C315        C316   1.544       .  S
C315        C619   1.454       .  S
C316        C320   1.523       .  S
C316        C318   1.536       .  S
C316        H322   1.107       .  S
C317        H323   1.083   1_554  S
C317        C318   1.407       .  D
C318        C363   1.531   1_554  S
C319        H324   1.086       .  S
C319        C320   1.336       .  D
C320        C599   1.455       .  S
In325       O327   2.290       .  S
In325       O328   2.329       .  S
In325       O336   2.261       .  S
In325       O330   2.259       .  S
In325       O332   2.171       .  S
In325       O333   2.236       .  S
In325       O334   2.241       .  S
In325       O337   2.272       .  S
C326        O332   1.267       .  A
C326        O334   1.261       .  A
C326        C616   1.448       .  S
O327        C335   1.265       .  A
O328        C335   1.269       .  A
C329        O336   1.267       .  A
C329        O330   1.264       .  A
C329       C1230   1.486       .  S
C331        O333   1.277       .  A
C331        O337   1.256       .  A
C331        N491   1.441       .  S
C338        C340   1.591       .  S
C338        C342   1.584       .  S
C338        C341   1.517       .  S
C338        C379   1.563       .  S
C339        C343   1.504       .  S
C339        C596   1.524       .  S
C340        C348   1.400       .  A
C341        C352   1.373       .  A
C341        C344   1.400       .  A
C342        C356   1.414       .  A
C342        C345   1.401       .  A
C343        C346   1.361       .  A
C344        C350   1.379   1_556  A
C345        C353   1.366       .  A
C346        N347   1.345       .  A
C346        H359   1.083       .  S
N347        C479   1.441       .  S
C348        H349   1.082       .  S
C350        N351   1.356       .  A
N351        C352   1.344   1_554  A
N351       N1023   1.405       .  S
C352        H358   1.082       .  S
C353        N354   1.317       .  A
C353        H355   1.078   1_556  S
N354        C356   1.385       .  A
N354        N402   1.418   1_556  S
C356        H357   1.081       .  S
C361        C362   1.571   1_556  S
C361        C367   1.521       .  S
C361        C365   1.539       .  S
C361        C576   1.552       .  S
C362        H369   1.083       .  S
C362        C363   1.399   1_554  D
C363        C364   1.528       .  S
C364        C368   1.527       .  S
C364        C366   1.553       .  S
C364        H370   1.108       .  S
C365        H371   1.080       .  S
C365        C366   1.361       .  D
C366        C586   1.459       .  S
C367        H372   1.089       .  S
C367        C368   1.339       .  D
C368        C566   1.459       .  S
In373       O375   2.288       .  S
In373       O376   2.246       .  S
In373       O384   2.262       .  S
In373       O378   2.281       .  S
In373       O380   2.188       .  S
In373       O381   2.341       .  S
In373       O382   2.237       .  S
In373       O385   2.319       .  S
C374        O380   1.266       .  A
C374        O382   1.259       .  A
C374        C589   1.449       .  S
O375        C383   1.257       .  A
O376        C383   1.277       .  A
C377        O384   1.266       .  A
C377        O378   1.265       .  A
C377       C1203   1.494       .  S
C379        O381   1.269       .  A
C379        O385   1.266       .  A
C383        N443   1.446       .  S
C386        C388   1.515       .  S
C386        C390   1.514       .  S
C386        C389   1.541       .  S
C386        C569   1.531       .  S
C387        C391   1.597       .  S
C387        C393   1.587       .  S
C387        C392   1.522       .  S
C388        C396   1.370       .  A
C388        C391   1.407       .  A
C389        C400   1.377       .  A
C389        C392   1.398       .  A
C390        C404   1.366       .  A
C390        C393   1.400       .  A
C391        C394   1.405       .  A
C392        C398   1.379       .  A
C394        N395   1.378       .  A
C394        H407   1.082       .  S
N395        C427   1.451       .  S
N395        C396   1.349       .  A
C396        H397   1.082       .  S
C398        N399   1.347       .  A
N399        C400   1.356       .  A
N399        N975   1.408   1_454  S
C400        H406   1.081   1_554  S
C401        H403   1.081   1_545  S
N402        C404   1.318       .  A
C404        H405   1.079       .  S
C409        C410   1.545       .  S
C409        C415   1.527       .  S
C409        C413   1.548       .  S
C409        C546   1.534       .  S
C410        H417   1.088       .  S
C410        C411   1.339       .  D
C411        C412   1.534       .  S
C411       C1180   1.471       .  S
C412        C416   1.558       .  S
C412        C414   1.536       .  S
C412       H1042   1.107       .  S
C413        H419   1.081       .  S
C413        C414   1.401       .  D
C414       C1083   1.512       .  S
C415        H420   1.081       .  S
C415        C416   1.356       .  D
C416        C536   1.479       .  S
H418       C1036   1.106   1_455  S
In421       O423   2.335       .  S
In421       O424   2.292       .  S
In421       O432   2.247       .  S
In421       O426   2.250       .  S
In421       O428   2.171       .  S
In421       O429   2.272       .  S
In421       O430   2.217       .  S
In421       O433   2.280       .  S
C422        O428   1.268       .  A
C422        O430   1.263       .  A
C422        C559   1.444   1_455  S
O423        C431   1.263       .  A
O424        C431   1.275       .  A
C425        O432   1.264       .  A
C425        O426   1.266       .  A
C425        C549   1.478       .  S
C427        O429   1.275       .  A
C427        O433   1.261       .  A
C431        C483   1.558       .  S
C434        C436   1.570       .  S
C434        C438   1.620       .  S
C434        C437   1.540       .  S
C434        C475   1.542       .  S
C435        C439   1.514       .  S
C435        C441   1.501       .  S
C435        C440   1.552       .  S
C435        C539   1.503       .  S
C436        C444   1.416       .  A
C436        C439   1.385       .  A
C437        C448   1.382       .  A
C437        C440   1.398       .  A
C438        C452   1.428       .  A
C438        C441   1.393       .  A
C439        C442   1.366       .  A
C440        C446   1.392       .  A
C441        C449   1.372       .  A
C442        N443   1.334       .  A
C442        H455   1.083       .  S
N443        C444   1.376       .  A
C444        H445   1.082       .  S
C446        N447   1.366       .  A
C446        H456   1.081       .  S
N447        C448   1.356       .  A
N447        N495   1.422       .  S
C448        H454   1.082       .  S
C449        N450   1.333       .  A
C449        H451   1.078       .  S
N450        C452   1.395       .  A
N450       N1122   1.435       .  S
C452        H453   1.081       .  S
C457        C458   1.559       .  S
C458        H465   1.082       .  S
C458        C459   1.401       .  D
C459       C1038   1.513   1_455  S
C460        C464   1.560       .  S
C460        C462   1.526       .  S
C460       H1090   1.100   1_455  S
C461        H467   1.089       .  S
C461        C462   1.330       .  D
C462        C526   1.463       .  S
C463        H468   1.084       .  S
C463        C464   1.361   1_545  D
C464        C509   1.492       .  S
H466       C1084   1.102       .  S
In469       O471   2.268       .  S
In469       O472   2.243       .  S
In469       O480   2.260       .  S
In469       O474   2.253       .  S
In469       O476   2.159       .  S
In469       O477   2.295       .  S
In469       O478   2.215       .  S
In469       O481   2.310       .  S
C470        O476   1.267       .  A
C470        O478   1.262       .  A
C470        C529   1.437       .  S
O471        C479   1.259       .  A
O472        C479   1.273       .  A
C473        O480   1.263       .  A
C473        O474   1.263       .  A
C473        C516   1.482       .  S
C475        O477   1.273       .  A
C475        O481   1.259       .  A
C482        C484   1.521       .  S
C482        C486   1.492       .  S
C482        C485   1.559       .  S
C482        C506   1.514       .  S
C483        C487   1.566       .  S
C483        C489   1.631       .  S
C483        C488   1.537       .  S
C484        C492   1.366       .  A
C484        C487   1.385       .  A
C485        C496   1.394       .  A
C485        C488   1.404       .  A
C486        C500   1.368       .  A
C486        C489   1.398       .  A
C487        C490   1.417       .  A
C488        C494   1.381       .  A
C489        C497   1.429       .  A
C490        N491   1.372       .  A
C490        H503   1.081       .  S
N491        C492   1.327       .  A
C492        H493   1.082       .  S
C494        N495   1.355       .  A
C494        H504   1.082       .  S
N495        C496   1.365       .  A
C496        H502   1.081       .  S
C497        N498   1.397       .  A
C497        H499   1.080       .  S
N498        C500   1.327       .  A
N498       N1074   1.435   1_455  S
C500        H501   1.074       .  S
C505        C506   1.423       .  A
C505        C510   1.385       .  A
C505        H512   1.082       .  S
C506        C507   1.400       .  A
C507        C508   1.386       .  A
C507        F514   1.354       .  S
C508        C509   1.417       .  A
C508        H513   1.077       .  S
C509        C510   1.394       .  A
C510        F511   1.358   1_455  S
C515        C516   1.410   1_545  A
C516        C517   1.395       .  A
C517        C518   1.398   1_565  A
C517        F524   1.358       .  S
C518        C519   1.421       .  A
C518        H523   1.076       .  S
C520        F521   1.357       .  S
C525        C838   1.407       .  A
C525       H1156   1.080       .  S
C526        C837   1.406       .  A
C526       C1151   1.395       .  A
C527       C1150   1.392       .  A
C527        C528   1.393       .  A
C527        F534   1.351       .  S
C528        C529   1.404       .  A
C528        H533   1.084       .  S
C529        C530   1.393       .  A
H532       C1149   1.080       .  S
C535        C536   1.419       .  A
C535        C540   1.381       .  A
C535        H542   1.073       .  S
C536        C537   1.389       .  A
C537        C538   1.383       .  A
C537       F1168   1.358       .  S
C538        C539   1.422       .  A
C538        H543   1.083       .  S
C539        C540   1.392       .  A
C540        F541   1.355       .  S
F544       C1161   1.358   1_455  S
C545        C546   1.415       .  A
C545        C550   1.412       .  A
C545        H552   1.083       .  S
C546        C547   1.421       .  A
C547        C548   1.394       .  A
C547        F554   1.352       .  S
C548        C549   1.389       .  A
C548        H553   1.084       .  S
C549        C550   1.410       .  A
C550        F551   1.357       .  S
C555       C1180   1.395       .  A
C555       C1184   1.396       .  A
C555        H562   1.081       .  S
C556       C1035   1.472       .  S
C556       C1179   1.395       .  A
C556        C557   1.416       .  A
C557        C558   1.385       .  A
C557        F564   1.356       .  S
C558        C559   1.390       .  A
C558        H563   1.084       .  S
C559        C560   1.404       .  A
C560       C1179   1.395       .  A
C560        F561   1.356   1_655  S
C565        C566   1.394       .  A
C565        C570   1.392       .  A
C565        H572   1.084       .  S
C566        C567   1.407   1_556  A
C567        C568   1.398       .  A
C567        F574   1.357       .  S
C568        C569   1.412       .  A
C568        H573   1.080       .  S
C569        C570   1.426   1_554  A
C570        F571   1.355       .  S
C575        C576   1.422   1_554  A
C575        C580   1.413       .  A
C575        H582   1.083       .  S
C576        C577   1.412       .  A
C577        C578   1.405   1_455  A
C577        F584   1.355       .  S
C578        C579   1.406       .  A
C578        H583   1.083       .  S
C579       C1001   1.488       .  S
C579        C580   1.403   1_656  A
C580       F1205   1.357       .  S
F581       C1204   1.357       .  S
C585        C586   1.395       .  A
C585        C590   1.389       .  A
C585        H592   1.083       .  S
C586        C587   1.407       .  A
C587        C588   1.394       .  A
C587        F594   1.358       .  S
C588        C589   1.396       .  A
C588        H593   1.084       .  S
C589        C590   1.404       .  A
C590        F591   1.358       .  S
C595        C596   1.413       .  A
C595        C600   1.396       .  A
C595        H602   1.080       .  S
C596        C597   1.421   1_556  A
C597        C598   1.391       .  A
C597        F604   1.355       .  S
C598        C599   1.396       .  A
C598        H603   1.081       .  S
C599        C600   1.404   1_554  A
C600        F601   1.358       .  S
C605        C606   1.406       .  A
C605        C610   1.405       .  A
C605        H612   1.084       .  S
C606        C953   1.491       .  S
C606        C607   1.406       .  A
C607        C608   1.419   1_554  A
C607        F614   1.356   1_554  S
C608        C609   1.424   1_556  A
C608        H613   1.084       .  S
C609        C610   1.412       .  A
C610        F611   1.357       .  S
C615        C616   1.397       .  A
C615        C620   1.392       .  A
C615        H622   1.083       .  S
C616        C617   1.406       .  A
C617        C618   1.391       .  A
C617        F624   1.358       .  S
C618        C619   1.394       .  A
C618        H623   1.084       .  S
C619        C620   1.403       .  A
C620        F621   1.357       .  S
C625        C626   1.541       .  S
C625        C631   1.519       .  S
C625        C629   1.570       .  S
C625        C921   1.566       .  S
C626        H633   1.081       .  S
C626        C627   1.355       .  D
C627        C628   1.546       .  S
C627        C931   1.459       .  S
C628        C632   1.526       .  S
C628        C630   1.536       .  S
C628        H634   1.108       .  S
C629        H635   1.082   1_554  S
C629        C630   1.406       .  D
C630        C675   1.531   1_554  S
C631        H636   1.086       .  S
C631        C632   1.338       .  D
C632        C911   1.457       .  S
In637       O639   2.284       .  S
In637       O640   2.326       .  S
In637       O648   2.264       .  S
In637       O642   2.267       .  S
In637       O644   2.185       .  S
In637       O645   2.229       .  S
In637       O646   2.239       .  S
In637       O649   2.270       .  S
C638        O644   1.268       .  A
C638        O646   1.259       .  A
C638        C928   1.451       .  S
O639        C647   1.266       .  A
O640        C647   1.269       .  A
C641        O648   1.267       .  A
C641        O642   1.265       .  A
C643        O645   1.277       .  A
C643        O649   1.258       .  A
C643        N803   1.439       .  S
C647       C1011   1.549       .  S
C650        C652   1.594       .  S
C650        C654   1.586       .  S
C650        C653   1.520       .  S
C650        C691   1.566       .  S
C651        C655   1.507       .  S
C651        C969   1.523       .  S
C651        C968   1.549       .  S
C651        C908   1.525       .  S
C652        C660   1.402       .  A
C652        C967   1.405   1_545  A
C653        C664   1.376       .  A
C653        C656   1.401       .  A
C654        C668   1.415       .  A
C654        C657   1.401       .  A
C655        C964   1.402       .  A
C655        C658   1.363       .  A
C656        C963   1.541   1_545  S
C656        C662   1.378   1_556  A
C657        C963   1.514   1_545  S
C657        C665   1.366       .  A
C658        N659   1.346       .  A
C658        H671   1.083       .  S
N659        C791   1.443       .  S
N659        C972   1.376       .  A
C660        N971   1.377   1_545  A
C660        H661   1.082       .  S
C662        N663   1.355       .  A
C662        H984   1.081   1_545  S
N663        C664   1.345   1_554  A
C664        H670   1.082       .  S
C665        N666   1.318       .  A
C665        H667   1.078   1_546  S
N666        C668   1.386       .  A
N666        N714   1.419   1_556  S
C668        H669   1.081       .  S
H672        C974   1.082   1_554  S
C673        C674   1.574   1_556  S
C673        C679   1.519       .  S
C673        C677   1.539       .  S
C673        C888   1.552       .  S
C674        H681   1.083       .  S
C674        C675   1.401   1_554  D
C675        C676   1.527       .  S
C676        C680   1.525       .  S
C676        C678   1.550       .  S
C676        H682   1.107       .  S
C677        H683   1.079       .  S
C677        C678   1.359       .  D
C678        C898   1.457       .  S
C679        H684   1.089       .  S
C679        C680   1.338       .  D
C680        C878   1.457       .  S
In685       O687   2.280       .  S
In685       O688   2.248       .  S
In685       O696   2.262       .  S
In685       O690   2.279       .  S
In685       O692   2.189       .  S
In685       O693   2.349       .  S
In685       O694   2.240       .  S
In685       O697   2.320       .  S
C686        O692   1.264       .  A
C686        O694   1.260       .  A
C686        C901   1.450       .  S
O687        C695   1.255       .  A
O688        C695   1.276       .  A
C689        O696   1.266       .  A
C689        O690   1.264       .  A
C691        O693   1.269       .  A
C691        O697   1.266       .  A
C695        N755   1.442       .  S
C698        C700   1.513       .  S
C698        C702   1.515       .  S
C698        C701   1.537       .  S
C698        C881   1.524       .  S
C699        C959   1.560   1_545  S
C699        C703   1.596       .  S
C699        C705   1.586       .  S
C699        C704   1.520       .  S
C700        C708   1.368       .  A
C700        C703   1.404       .  A
C701        C712   1.376       .  A
C701        C704   1.396       .  A
C702        C716   1.368       .  A
C702        C705   1.401       .  A
C703        C706   1.406       .  A
C704        C710   1.376       .  A
C705       C1025   1.414       .  A
C706        N707   1.378       .  A
C706        H719   1.082       .  S
N707        C739   1.450       .  S
N707        C708   1.348       .  A
C708        H709   1.083       .  S
C710        N711   1.346       .  A
C710       H1032   1.082   1_545  S
N711        C712   1.354       .  A
C712        H718   1.081   1_554  S
C713       C1017   1.411       .  A
C713       N1026   1.379       .  A
C713        H715   1.081       .  S
N714       C1025   1.385       .  A
N714        C716   1.319       .  A
C716        H717   1.079       .  S
H720       C1022   1.082       .  S
C721        C722   1.545       .  S
C721        C727   1.529       .  S
C721        C725   1.549       .  S
C721        C858   1.533       .  S
C722        H729   1.088       .  S
C722        C723   1.339       .  D
C723        C724   1.535       .  S
C724        C728   1.561       .  S
C724        C726   1.538       .  S
C725        H731   1.081       .  S
C725        C726   1.397       .  D
C727        H732   1.080       .  S
C727        C728   1.357       .  D
C728        C848   1.484       .  S
In733       O735   2.334       .  S
In733       O736   2.283       .  S
In733       O744   2.240       .  S
In733       O738   2.233       .  S
In733       O740   2.162       .  S
In733       O741   2.267       .  S
In733       O742   2.218       .  S
In733       O745   2.279       .  S
C734        O740   1.265       .  A
C734        O742   1.261       .  A
C734        C871   1.439       .  S
O735        C743   1.264       .  A
O736        C743   1.273       .  A
C737        O744   1.266       .  A
C737        O738   1.265       .  A
C737        C861   1.475       .  S
C739        O741   1.275       .  A
C739        O745   1.261       .  A
C743        C795   1.557       .  S
C746        C748   1.571       .  S
C746        C750   1.616       .  S
C746        C749   1.546       .  S
C746        C787   1.550       .  S
C747        C751   1.506       .  S
C747        C753   1.510       .  S
C747        C752   1.553       .  S
C747        C851   1.510       .  S
C748        C756   1.410       .  A
C748        C751   1.380       .  A
C749        C760   1.382       .  A
C749        C752   1.398       .  A
C750        C764   1.427       .  A
C750        C753   1.397       .  A
C751        C754   1.364       .  A
C752        C758   1.392       .  A
C753        C761   1.374       .  A
C754        N755   1.336       .  A
C754        H767   1.083       .  S
N755        C756   1.376       .  A
C756        H757   1.082       .  S
C758        N759   1.367       .  A
C758        H768   1.080       .  S
N759        C760   1.360       .  A
N759        N807   1.424       .  S
C760        H766   1.081       .  S
C761        N762   1.334       .  A
C761        H763   1.078       .  S
N762        C764   1.395       .  A
C764        H765   1.081       .  S
C769        C770   1.559       .  S
C769       C1087   1.529       .  S
C769       C1085   1.543   1_545  S
C769       C1143   1.535       .  S
C770        H777   1.082       .  S
C770        C771   1.403       .  D
C771       C1084   1.533   1_545  S
C772       C1083   1.530       .  S
C772        C776   1.555       .  S
C772        C774   1.524       .  S
C773       C1081   1.545       .  S
C773        H779   1.088       .  S
C773        C774   1.329       .  D
C774        C838   1.462       .  S
C775       C1081   1.532       .  S
C775        H780   1.084       .  S
C775        C776   1.356       .  D
C776        C821   1.484       .  S
In781       O783   2.268       .  S
In781       O784   2.255       .  S
In781       O792   2.267       .  S
In781       O786   2.239       .  S
In781       O788   2.167       .  S
In781       O789   2.300       .  S
In781       O790   2.225       .  S
In781       O793   2.315       .  S
C782        O788   1.262       .  A
C782        O790   1.259       .  A
C782        C841   1.438   1_655  S
O783        C791   1.259       .  A
O784        C791   1.273       .  A
C785        O792   1.265       .  A
C785        O786   1.262       .  A
C785        C828   1.482       .  S
C787        O789   1.270       .  A
C787        O793   1.263       .  A
C794        C796   1.511       .  S
C794        C798   1.500       .  S
C794        C797   1.554       .  S
C794        C818   1.510       .  S
C795        C799   1.570       .  S
C795        C801   1.629       .  S
C795        C800   1.543       .  S
C796        C804   1.364       .  A
C796        C799   1.378       .  A
C797        C808   1.389       .  A
C797        C800   1.399       .  A
C798        C812   1.371       .  A
C798        C801   1.398       .  A
C799        C802   1.415       .  A
C800        C806   1.385       .  A
C801        C809   1.431       .  A
C802        N803   1.372       .  A
C802        H815   1.081       .  S
N803        C804   1.330       .  A
C804        H805   1.082       .  S
C806        N807   1.361       .  A
C806        H816   1.081       .  S
N807        C808   1.366       .  A
C808        H814   1.080       .  S
C809        N810   1.397       .  A
C809        H811   1.078       .  S
N810        C812   1.329       .  A
C812        H813   1.075       .  S
C817        C818   1.422       .  A
C817        C822   1.380       .  A
C817        H824   1.081       .  S
C818        C819   1.401       .  A
C819        C820   1.387       .  A
C819        F826   1.354       .  S
C820        C821   1.417       .  A
C820        H825   1.076       .  S
C821        C822   1.390       .  A
C822        F823   1.358       .  S
C827        C828   1.412       .  A
C827       C1144   1.416       .  A
C827       H1146   1.083       .  S
C828        C829   1.395       .  A
C829        C830   1.395       .  A
C829        F836   1.358       .  S
C830        C831   1.420       .  A
C830        H835   1.076       .  S
C831       C1081   1.535       .  S
C831       C1144   1.419       .  A
C832       C1139   1.416       .  A
C832       C1143   1.419       .  A
C832        F833   1.357       .  S
H834       C1139   1.083       .  S
C837       C1154   1.380       .  A
C839        C840   1.393       .  A
C839        F846   1.349       .  S
C840        C841   1.403       .  A
C840        H845   1.084       .  S
C841        C842   1.394       .  A
C842       C1149   1.382       .  A
C842       F1155   1.358       .  S
F843       C1154   1.358   1_545  S
C847        C848   1.420       .  A
C847        C852   1.386       .  A
C847        H854   1.073       .  S
C848        C849   1.389       .  A
C849        C850   1.384       .  A
C850        C851   1.422       .  A
C850        H855   1.082       .  S
C851        C852   1.394       .  A
C852        F853   1.355       .  S
C857        C858   1.416       .  A
C857        C862   1.411       .  A
C857        H864   1.082       .  S
C858        C859   1.420       .  A
C859        C860   1.393       .  A
C859        F866   1.351       .  S
C860        C861   1.388       .  A
C860        H865   1.084       .  S
C861        C862   1.408       .  A
C862        F863   1.357       .  S
C867        H874   1.080       .  S
C868        C869   1.416       .  A
C869        C870   1.382       .  A
C869        F876   1.355       .  S
C870        C871   1.388       .  A
C870        H875   1.084       .  S
C871        C872   1.402       .  A
C872        F873   1.356       .  S
C877        C878   1.395       .  A
C877        C882   1.391       .  A
C877        H884   1.084       .  S
C878        C879   1.406   1_556  A
C879        C880   1.395       .  A
C879        F886   1.357       .  S
C880        C881   1.411       .  A
C880        H885   1.081       .  S
C881        C882   1.425   1_554  A
C882        F883   1.355       .  S
C887        C888   1.423   1_554  A
C887        C892   1.415       .  A
C887        H894   1.083       .  S
C888        C889   1.413       .  A
C889        C890   1.403       .  A
C889        F896   1.355       .  S
C890        C891   1.404       .  A
C890        H895   1.083       .  S
C891        C892   1.404   1_556  A
C897        C898   1.395       .  A
C897        C902   1.388       .  A
C897        H904   1.081       .  S
C898        C899   1.406       .  A
C899        C900   1.395       .  A
C899        F906   1.358       .  S
C900        C901   1.397       .  A
C900        H905   1.083       .  S
C901        C902   1.404       .  A
C902        F903   1.358       .  S
C907        C908   1.413       .  A
C907        C912   1.398       .  A
C907        H914   1.081       .  S
C908        C909   1.422   1_556  A
C909        C910   1.392       .  A
C909        F916   1.355       .  S
C910        C911   1.396       .  A
C910        H915   1.081       .  S
C911        C912   1.403   1_554  A
C912        F913   1.356       .  S
C917        C918   1.405   1_655  A
C917        C922   1.405       .  A
C917        H924   1.083   1_655  S
C918        C919   1.408   1_455  A
C919        C920   1.419   1_554  A
C919        F926   1.357   1_554  S
C920        C921   1.425   1_556  A
C920        H925   1.084       .  S
C921        C922   1.411       .  A
C922        F923   1.356       .  S
C927        C928   1.398       .  A
C927        C932   1.392       .  A
C927        H934   1.083       .  S
C928        C929   1.404       .  A
C929        C930   1.393       .  A
C929        F936   1.358       .  S
C930        C931   1.396       .  A
C930        H935   1.083       .  S
C931        C932   1.404       .  A
C932        F933   1.357       .  S
C937        C938   1.540       .  S
C937        C943   1.518       .  S
C937        C941   1.573       .  S
C937       C1233   1.552       .  S
C938        H945   1.080       .  S
C938        C939   1.361       .  D
C939        C940   1.554       .  S
C939       C1243   1.461       .  S
C940        C944   1.532       .  S
C940        C942   1.530       .  S
C940        H946   1.107       .  S
C941        H947   1.083   1_554  S
C941        C942   1.399       .  D
C942        C987   1.535       .  S
C943        H948   1.089       .  S
C943        C944   1.339       .  D
C944       C1223   1.464       .  S
In949       O951   2.315       .  S
In949       O952   2.346       .  S
In949       O960   2.269       .  S
In949       O954   2.274       .  S
In949       O956   2.186       .  S
In949       O957   2.255       .  S
In949       O958   2.241       .  S
In949       O961   2.279       .  S
C950        O956   1.262       .  A
C950        O958   1.260       .  A
C950       C1240   1.450       .  S
O951        C959   1.265       .  A
O952        C959   1.267       .  A
C953        O960   1.266       .  A
C953        O954   1.262       .  A
C955        O957   1.274       .  A
C955        O961   1.253       .  A
C955       N1115   1.441       .  S
C962        C964   1.589       .  S
C962        C966   1.573       .  S
C962        C965   1.514       .  S
C962       C1003   1.552       .  S
C963        C967   1.514       .  S
C963       C1220   1.531       .  S
C964        C972   1.402       .  A
C965        C976   1.368       .  A
C965        C968   1.398       .  A
C966        C980   1.409       .  A
C966        C969   1.402       .  A
C967        C970   1.370       .  A
C968        C974   1.388       .  A
C969        C977   1.368       .  A
C970        N971   1.349       .  A
C970        H983   1.083       .  S
N971       C1103   1.448       .  S
C972        H973   1.082       .  S
C974        N975   1.359       .  A
N975        C976   1.344       .  A
C976        H982   1.081       .  S
C977        N978   1.320       .  A
C977        H979   1.078       .  S
N978        C980   1.379       .  A
N978       N1026   1.417   1_556  S
C980        H981   1.081       .  S
C985        C986   1.572   1_556  S
C985        C991   1.518       .  S
C985        C989   1.540       .  S
C985       C1200   1.563       .  S
C986        H993   1.083       .  S
C986        C987   1.404       .  D
C987        C988   1.538   1_554  S
C988        C992   1.528       .  S
C988        C990   1.547       .  S
C988        H994   1.108       .  S
C989        H995   1.081       .  S
C989        C990   1.357       .  D
C990       C1210   1.459       .  S
C991        H996   1.087       .  S
C991        C992   1.337       .  D
C992       C1190   1.459       .  S
In997       O999   2.264       .  S
In997      O1000   2.238       .  S
In997      O1008   2.263       .  S
In997      O1002   2.264       .  S
In997      O1004   2.180       .  S
In997      O1005   2.324       .  S
In997      O1006   2.241       .  S
In997      O1009   2.294       .  S
C998       O1004   1.267       .  A
C998       O1006   1.260       .  A
C998       C1213   1.450       .  S
O999       C1007   1.256       .  A
O1000      C1007   1.277       .  A
C1001      O1008   1.267       .  A
C1001      O1002   1.264       .  A
C1003      O1005   1.269       .  A
C1003      O1009   1.266       .  A
C1007      N1067   1.438       .  S
C1010      C1012   1.510       .  S
C1010      C1014   1.525       .  S
C1010      C1013   1.547       .  S
C1010      C1193   1.527       .  S
C1011      C1015   1.592       .  S
C1011      C1017   1.573       .  S
C1011      C1016   1.511       .  S
C1012      C1020   1.366       .  A
C1012      C1015   1.402       .  A
C1013      C1024   1.383       .  A
C1013      C1016   1.394       .  A
C1014      C1028   1.367       .  A
C1014      C1017   1.404       .  A
C1015      C1018   1.404       .  A
C1016      C1022   1.368       .  A
C1018      N1019   1.377       .  A
C1018      H1031   1.082       .  S
N1019      C1051   1.448       .  S
N1019      C1020   1.348       .  A
C1020      H1021   1.082       .  S
C1022      N1023   1.344       .  A
N1023      C1024   1.358       .  A
C1024      H1030   1.081       .  S
C1025      H1027   1.081   1_545  S
N1026      C1028   1.319       .  A
C1028      H1029   1.078       .  S
C1033      C1034   1.546       .  S
C1033      C1039   1.526       .  S
C1033      C1037   1.553       .  S
C1033      C1170   1.531       .  S
C1034      H1041   1.087       .  S
C1034      C1035   1.336       .  D
C1035      C1036   1.533       .  S
C1036      C1040   1.559       .  S
C1036      C1038   1.534       .  S
C1037      H1043   1.081       .  S
C1037      C1038   1.400       .  D
C1039      H1044   1.081       .  S
C1039      C1040   1.355       .  D
C1040      C1160   1.476       .  S
In1045     O1047   2.321       .  S
In1045     O1048   2.287       .  S
In1045     O1056   2.249       .  S
In1045     O1050   2.246       .  S
In1045     O1052   2.163       .  S
In1045     O1053   2.258       .  S
In1045     O1054   2.217       .  S
In1045     O1057   2.275       .  S
C1046      O1052   1.269       .  A
C1046      O1054   1.263       .  A
C1046      C1183   1.443       .  S
O1047      C1055   1.262       .  A
O1048      C1055   1.275       .  A
C1049      O1056   1.265       .  A
C1049      O1050   1.265       .  A
C1049      C1173   1.477       .  S
C1051      O1053   1.275       .  A
C1051      O1057   1.262       .  A
C1055      C1107   1.549       .  S
C1058      C1060   1.568       .  S
C1058      C1062   1.629       .  S
C1058      C1061   1.548       .  S
C1058      C1099   1.556       .  S
C1059      C1063   1.509       .  S
C1059      C1065   1.496       .  S
C1059      C1064   1.552       .  S
C1059      C1163   1.505       .  S
C1060      C1068   1.412       .  A
C1060      C1063   1.381       .  A
C1061      C1072   1.388       .  A
C1061      C1064   1.398       .  A
C1062      C1076   1.432       .  A
C1062      C1065   1.397       .  A
C1063      C1066   1.365       .  A
C1064      C1070   1.390       .  A
C1065      C1073   1.369       .  A
C1066      N1067   1.331       .  A
C1066      H1079   1.083       .  S
N1067      C1068   1.372       .  A
C1068      H1069   1.081       .  S
C1070      N1071   1.366       .  A
C1070      H1080   1.080       .  S
N1071      C1072   1.362       .  A
N1071      N1119   1.425       .  S
C1072      H1078   1.081       .  S
C1073      N1074   1.327       .  A
C1073      H1075   1.078       .  S
N1074      C1076   1.399       .  A
C1076      H1077   1.081       .  S
C1081      C1082   1.563       .  S
C1082      H1089   1.083       .  S
C1082      C1083   1.403       .  D
C1084      C1088   1.559       .  S
C1084      C1086   1.530       .  S
C1085      H1091   1.089       .  S
C1085      C1086   1.333       .  D
C1086      C1150   1.469       .  S
C1087      H1092   1.084       .  S
C1087      C1088   1.356   1_545  D
C1088      C1133   1.484       .  S
In1093     O1095   2.266       .  S
In1093     O1096   2.278       .  S
In1093     O1104   2.269       .  S
In1093     O1098   2.218       .  S
In1093     O1100   2.154       .  S
In1093     O1101   2.299       .  S
In1093     O1102   2.227       .  S
In1093     O1105   2.328       .  S
C1094      O1100   1.260       .  A
C1094      O1102   1.261       .  A
C1094      C1153   1.438   1_655  S
O1095      C1103   1.258       .  A
O1096      C1103   1.273       .  A
C1097      O1104   1.266       .  A
C1097      O1098   1.261       .  A
C1097      C1140   1.477       .  S
C1099      O1101   1.270       .  A
C1099      O1105   1.262       .  A
C1106      C1108   1.509       .  S
C1106      C1110   1.512       .  S
C1106      C1109   1.554       .  S
C1106      C1130   1.509       .  S
C1107      C1111   1.566       .  S
C1107      C1113   1.616       .  S
C1107      C1112   1.546       .  S
C1108      C1116   1.366       .  A
C1108      C1111   1.376       .  A
C1109      C1120   1.394       .  A
C1109      C1112   1.398       .  A
C1110      C1124   1.375       .  A
C1110      C1113   1.398       .  A
C1111      C1114   1.409       .  A
C1112      C1118   1.383       .  A
C1113      C1121   1.424       .  A
C1114      N1115   1.375       .  A
C1114      H1127   1.082       .  S
N1115      C1116   1.336       .  A
C1116      H1117   1.083       .  S
C1118      N1119   1.361       .  A
C1118      H1128   1.081       .  S
N1119      C1120   1.368       .  A
C1120      H1126   1.081       .  S
C1121      N1122   1.393       .  A
C1121      H1123   1.080       .  S
N1122      C1124   1.334       .  A
C1124      H1125   1.074       .  S
C1129      C1130   1.422       .  A
C1129      C1134   1.382       .  A
C1129      H1136   1.082       .  S
C1130      C1131   1.398       .  A
C1131      C1132   1.387       .  A
C1131      F1138   1.355       .  S
C1132      C1133   1.418       .  A
C1132      H1137   1.076       .  S
C1133      C1134   1.390       .  A
C1134      F1135   1.358       .  S
C1139      C1140   1.410   1_545  A
C1140      C1141   1.390       .  A
C1141      C1142   1.389   1_565  A
C1141      F1148   1.359       .  S
C1142      C1143   1.417       .  A
C1142      H1147   1.074       .  S
C1144      F1145   1.356       .  S
C1151      C1152   1.393       .  A
C1151      F1158   1.351       .  S
C1152      C1153   1.403       .  A
C1152      H1157   1.084       .  S
C1153      C1154   1.395       .  A
C1159      C1160   1.418       .  A
C1159      C1164   1.383       .  A
C1159      H1166   1.074       .  S
C1160      C1161   1.386       .  A
C1161      C1162   1.380       .  A
C1162      C1163   1.424       .  A
C1162      H1167   1.083   1_655  S
C1163      C1164   1.395       .  A
C1164      F1165   1.355       .  S
C1169      C1170   1.416       .  A
C1169      C1174   1.413       .  A
C1169      H1176   1.083       .  S
C1170      C1171   1.421       .  A
C1171      C1172   1.396       .  A
C1171      F1178   1.352       .  S
C1172      C1173   1.391       .  A
C1172      H1177   1.083       .  S
C1173      C1174   1.411       .  A
C1174      F1175   1.357       .  S
C1179      H1186   1.081       .  S
C1180      C1181   1.415       .  A
C1181      C1182   1.385       .  A
C1181      F1188   1.356       .  S
C1182      C1183   1.390       .  A
C1182      H1187   1.084       .  S
C1183      C1184   1.403       .  A
C1184      F1185   1.356       .  S
C1189      C1190   1.397       .  A
C1189      C1194   1.393       .  A
C1189      H1196   1.083       .  S
C1190      C1191   1.402   1_556  A
C1191      C1192   1.398       .  A
C1191      F1198   1.355       .  S
C1192      C1193   1.412       .  A
C1192      H1197   1.081       .  S
C1193      C1194   1.424   1_554  A
C1194      F1195   1.355       .  S
C1199      C1200   1.425   1_554  A
C1199      C1204   1.420       .  A
C1199      H1206   1.083       .  S
C1200      C1201   1.413       .  A
C1201      C1202   1.404       .  A
C1201      F1208   1.356       .  S
C1202      C1203   1.404       .  A
C1202      H1207   1.083       .  S
C1203      C1204   1.408   1_556  A
C1209      C1210   1.395       .  A
C1209      C1214   1.393       .  A
C1209      H1216   1.084       .  S
C1210      C1211   1.406       .  A
C1211      C1212   1.392       .  A
C1211      F1218   1.357       .  S
C1212      C1213   1.397       .  A
C1212      H1217   1.084       .  S
C1213      C1214   1.405       .  A
C1214      F1215   1.358       .  S
C1219      C1220   1.413       .  A
C1219      C1224   1.399       .  A
C1219      H1226   1.081       .  S
C1220      C1221   1.424   1_556  A
C1221      C1222   1.395       .  A
C1221      F1228   1.355       .  S
C1222      C1223   1.399       .  A
C1222      H1227   1.084       .  S
C1223      C1224   1.405   1_554  A
C1224      F1225   1.357       .  S
C1229      C1230   1.404       .  A
C1229      C1234   1.402   1_455  A
C1229      H1236   1.084       .  S
C1230      C1231   1.403   1_455  A
C1231      C1232   1.414       .  A
C1231      F1238   1.357   1_554  S
C1232      C1233   1.424       .  A
C1232      H1237   1.083   1_554  S
C1233      C1234   1.413       .  A
C1234      F1235   1.354       .  S
C1239      C1240   1.397       .  A
C1239      C1244   1.396       .  A
C1239      H1246   1.083       .  S
C1240      C1241   1.405       .  A
C1241      C1242   1.389       .  A
C1241      F1248   1.359       .  S
C1242      C1243   1.395       .  A
C1242      H1247   1.080       .  S
C1243      C1244   1.406       .  A
C1244      F1245   1.357       .  S
