geometry optimzed in LAMMPS
_audit_creation_date              2020-12-01 
_audit_creation_method            'lammps2cif' 
_symmetry_space_group_name_H-M    'P1' 
_symmetry_Int_Tables_number       1 
_symmetry_cell_setting            triclinic 
loop_ 
_symmetry_equiv_pos_as_xyz 
  x,y,z 
_cell_length_a                    31.40080892 
_cell_length_b                    33.58820858621602 
_cell_length_c                    31.390825546919395 
_cell_angle_alpha                 89.99002626762072 
_cell_angle_beta                  93.70549562262833 
_cell_angle_gamma                 89.99483989784984 
loop_ 
_atom_site_label 
_atom_site_type_symbol 
_atom_site_fract_x 
_atom_site_fract_y 
_atom_site_fract_z 
_atom_site_charge 
O1          O  0.26673712  0.29891106  0.03209124    -0.54800
C2          C  0.35859980  0.37624391  0.98285789     0.77800
O3          O  0.31953560  0.31776503  0.12330387    -0.56000
C4          C  0.27222934  0.26179456  0.03631158     0.77800
C5          C  0.42521531  0.32152183  0.09692067     0.80100
Cd6        Cd  0.34211071  0.32053462  0.05122384     1.37500
O7          O  0.35967920  0.33945575  0.97367784    -0.54800
O8          O  0.41635354  0.29333478  0.07062820    -0.53700
C9          C  0.29524587  0.34769103  0.11855753     0.80100
O10         O  0.39603929  0.34631650  0.10250667    -0.56000
O11         O  0.35034073  0.38442561  0.02067970    -0.54500
O12         O  0.31093957  0.25059808  0.04288148    -0.54500
O13         O  0.29511858  0.36690814  0.08378807    -0.53600
O14         O  0.10336935  0.39825917  0.28694882    -0.54800
C15         C  0.12693269  0.47237125  0.17756953     0.77800
O16         O  0.16113923  0.35751361  0.16431271    -0.56000
C17         C  0.11369628  0.36213262  0.29361312     0.77800
C18         C  0.03679112  0.35751795  0.16476150     0.80100
Cd19       Cd  0.11271495  0.39239524  0.20798130     1.37500
O20         O  0.12095404  0.46661069  0.21670807    -0.54800
O21         O  0.03483944  0.39003431  0.18511919    -0.53700
C22         C  0.19446192  0.37024023  0.18465854     0.80100
O23         O  0.07304309  0.34131233  0.16448425    -0.56000
O24         O  0.12376861  0.44212051  0.15366359    -0.54500
O25         O  0.12215124  0.34169772  0.26147426    -0.54500
O26         O  0.19009009  0.39114873  0.21748358    -0.53600
C27         C  0.37036220  0.48144092  0.91034394     0.33000
C28         C  0.36420417  0.41086773  0.95258577     0.33000
C29         C  0.37950018  0.44392387  0.88441255    -0.03200
C30         C  0.40022962  0.47633550  0.94928692    -0.04000
C31         C  0.32627263  0.47296652  0.92771277    -0.03900
C32         C  0.37586403  0.40701657  0.90559145    -0.03200
C33         C  0.39767014  0.44103624  0.97148489    -0.04000
C34         C  0.32313972  0.43567291  0.94756625    -0.03900
C35         C  0.36758521  0.37891342  0.87359770    -0.29300
N36         N  0.36812636  0.39733182  0.83497775     0.17200
C37         C  0.37416497  0.43677545  0.84152848    -0.29300
H38         H  0.37182890  0.45915218  0.81674078     0.19200
C39         C  0.42635539  0.44474795  0.00685104    -0.28300
N40         N  0.44524085  0.48115945  0.00507945     0.16000
C41         C  0.42969333  0.50047403  0.97008284    -0.28200
C42         C  0.29010516  0.43724276  0.97397080    -0.28500
N43         N  0.27517465  0.47453228  0.97439063     0.16500
H44         H  0.28196529  0.41469706  0.99671374     0.19100
C45         C  0.29939997  0.99698525  0.94900140    -0.28500
H46         H  0.29857609  0.02919637  0.94840691     0.19100
H47         H  0.44009449  0.03161803  0.96430972     0.19100
H48         H  0.35944200  0.34797144  0.87812562     0.19200
H49         H  0.43274005  0.42299987  0.03191571     0.19100
O50         O  0.15461907  0.15375743  0.09767190    -0.54800
C51         C  0.23530443  0.23342471  0.03372927     0.77800
O52         O  0.19081519  0.17445135  0.94818953    -0.56000
C53         C  0.14539690  0.11838236  0.08624752     0.77800
C54         C  0.08304254  0.17460878  0.97307837     0.80100
Cd55       Cd  0.16578859  0.17441261  0.01904873     1.37500
O56         O  0.24067408  0.19646147  0.03965324    -0.54800
O57         O  0.08985580  0.19877388  0.00411266    -0.53700
C58         C  0.21511181  0.14478044  0.95471353     0.80100
O59         O  0.11463358  0.15511401  0.96170357    -0.56000
O60         O  0.19671744  0.24448802  0.02561837    -0.54500
O61         O  0.14492813  0.11166400  0.04669963    -0.56100
O62         O  0.21402886  0.12646631  0.98998112    -0.53600
O63         O  0.40002036  0.02756211  0.85964291    -0.54800
C64         C  0.39917647  0.13044169  0.78036440     0.77800
O65         O  0.35086076  0.13261272  0.91369512    -0.56000
C66         C  0.38045261  0.02224200  0.89339340     0.77800
C67         C  0.47404683  0.13767326  0.91416819     0.80100
Cd68       Cd  0.39959305  0.10245033  0.86695625     1.37500
O69         O  0.40799034  0.09418385  0.78801809    -0.54800
O70         O  0.47611141  0.10364168  0.89689806    -0.53700
C71         C  0.31779150  0.12465749  0.89006824     0.80100
O72         O  0.43837273  0.15500366  0.91008251    -0.56000
O73         O  0.39270247  0.15223779  0.81210222    -0.54500
O74         O  0.37147653  0.05315644  0.91372504    -0.54500
O75         O  0.32265317  0.10960252  0.85381962    -0.53600
C76         C  0.13420887  0.51289347  0.15834751     0.33000
C77         C  0.13914763  0.08321177  0.11560320     0.33000
C78         C  0.13832467  0.04813527  0.18532371    -0.03200
C79         C  0.16884058  0.01475899  0.12688493    -0.04000
C80         C  0.09362326  0.02431649  0.12750194    -0.03900
C81         C  0.14245424  0.08517759  0.16501743    -0.03200
C82         C  0.17295439  0.05177755  0.10763078    -0.04000
C83         C  0.09689758  0.06017067  0.10585843    -0.03900
C84         C  0.14894806  0.11310562  0.19730812    -0.29300
N85         N  0.14850827  0.09380932  0.23555181     0.17200
C86         C  0.14217262  0.05442062  0.22831585    -0.29300
H87         H  0.14030147  0.03197297  0.25289115     0.19200
C88         C  0.20180017  0.04822433  0.07701935    -0.28300
N89         N  0.21371317  0.51103478  0.07480053     0.16000
C90         C  0.19453957  0.48988687  0.10517134    -0.28200
C91         C  0.06183725  0.06151024  0.07661846    -0.28500
N92         N  0.03819298  0.02804594  0.08176284     0.16500
H93         H  0.05545479  0.08365719  0.05195716     0.19100
C94         C  0.05971801  0.50665554  0.11493648    -0.28500
H95         H  0.04940942  0.47713794  0.12365368     0.19100
H96         H  0.19436486  0.45772641  0.10737769     0.19100
H97         H  0.15292474  0.14483637  0.19339714     0.19200
H98         H  0.21043097  0.07081693  0.05459268     0.19100
O99         O  0.49361149  0.04495211  0.54078810    -0.54800
C100        C  0.40032713  0.12320905  0.58872770     0.77800
O101        O  0.44361909  0.06573192  0.44925317    -0.56000
C102        C  0.48736336  0.50932524  0.53747299     0.77800
C103        C  0.33716650  0.06900258  0.47290672     0.80100
Cd104      Cd  0.41917863  0.06756260  0.52059386     1.37500
O105        O  0.40438534  0.08680801  0.59911848    -0.54800
O106        O  0.34497924  0.04110535  0.49987132    -0.53700
C107        C  0.96843767  0.09508100  0.45525491     0.80100
O108        O  0.36714558  0.09287879  0.46705463    -0.56000
O109        O  0.40434021  0.13098915  0.54988057    -0.54500
O110        O  0.44881890  0.99719998  0.52865382    -0.54500
O111        O  0.96742547  0.11488746  0.48958341    -0.53600
O112        O  0.14111449  0.21365332  0.35428471    -0.54800
C113        C  0.15091249  0.11060090  0.27763185     0.77800
O114        O  0.19079977  0.08837973  0.40777645    -0.56000
C115        C  0.13313871  0.21917568  0.39296322     0.77800
C116        C  0.06939532  0.11583627  0.38798798     0.80100
Cd117      Cd  0.15057024  0.13923838  0.36384968     1.37500
O118        O  0.16171699  0.14641861  0.28536479    -0.54800
O119        O  0.07319780  0.13380564  0.35310231    -0.53700
C120        C  0.22684653  0.10504628  0.40812033     0.80100
O121        O  0.10306913  0.10575441  0.40954426    -0.56000
O122        O  0.14166694  0.08956534  0.30911535    -0.54500
O123        O  0.13519230  0.18878419  0.41667772    -0.54500
O124        O  0.22846954  0.13772920  0.38801124    -0.53600
C125        C  0.38813833  0.22976954  0.65957732     0.33000
C126        C  0.39436166  0.15813298  0.61859908     0.33000
C127        C  0.38680501  0.19258086  0.68780894    -0.03200
C128        C  0.35357174  0.22094286  0.62538882    -0.04000
C129        C  0.42930987  0.22352290  0.63616167    -0.03900
C130        C  0.39048285  0.15545340  0.66748743    -0.03200
C131        C  0.35619403  0.18518484  0.60366569    -0.04000
C132        C  0.43260313  0.18621215  0.61693898    -0.03900
C133        C  0.39635503  0.12751771  0.69991363    -0.29300
N134        N  0.39567779  0.14686405  0.73811450     0.17200
C135        C  0.39021911  0.18632199  0.73078389    -0.29300
H136        H  0.39049236  0.20902974  0.75521245     0.19200
C137        C  0.32480906  0.18708433  0.57041382    -0.28300
N138        N  0.30402077  0.22251895  0.57319793     0.16000
C139        C  0.32123295  0.24317361  0.60657513    -0.28200
C140        C  0.46435732  0.18797593  0.58920490    -0.28500
N141        N  0.47840132  0.22555448  0.58797945     0.16500
H142        H  0.47269064  0.16511470  0.56690449     0.19100
C143        C  0.45699858  0.24808742  0.61555429    -0.28500
H144        H  0.45799331  0.28027566  0.61695060     0.19100
H145        H  0.31220946  0.27316718  0.61502960     0.19100
H146        H  0.40199682  0.09598905  0.69612667     0.19200
H147        H  0.31879138  0.16534806  0.54527521     0.19100
O148        O  0.10569379  0.40135335  0.47360629    -0.54800
C149        C  0.02417968  0.47931465  0.53828595     0.77800
O150        O  0.07181958  0.42335025  0.62446191    -0.56000
C151        C  0.11111261  0.36512879  0.48415649     0.77800
C152        C  0.17716162  0.41946363  0.59624013     0.80100
Cd153      Cd  0.09355524  0.42058651  0.55232307     1.37500
O154        O  0.01835513  0.44226656  0.53352365    -0.54800
O155        O  0.16830572  0.44711360  0.56922907    -0.53700
C156        C  0.04615450  0.39446619  0.61965726     0.80100
O157        O  0.14743677  0.39590235  0.60397755    -0.56000
O158        O  0.06295806  0.49032334  0.54499130    -0.54500
O159        O  0.10866520  0.35737831  0.52323462    -0.54500
O160        O  0.04502860  0.37530699  0.58476662    -0.53600
O161        O  0.36633706  0.27562024  0.71510493    -0.54800
C162        C  0.36347483  0.38011305  0.79307565     0.77800
O163        O  0.41135577  0.38332573  0.66260056    -0.56000
C164        C  0.38096296  0.27029045  0.67872176     0.77800
C165        C  0.28788595  0.38346394  0.65973845     0.80100
Cd166      Cd  0.36275425  0.35018681  0.70699763     1.37500
O167        O  0.35470919  0.34366927  0.78638085    -0.54800
O168        O  0.28622023  0.35006841  0.67845423    -0.53700
C169        C  0.44442419  0.37221203  0.68454774     0.80100
O170        O  0.32337381  0.40120432  0.66273877    -0.56000
O171        O  0.36935149  0.40124345  0.76068210    -0.54500
O172        O  0.38522038  0.30108122  0.65634852    -0.54500
O173        O  0.43970354  0.35400026  0.71910692    -0.53600
C174        C  0.12535283  0.25952203  0.41237558     0.33000
C175        C  0.11730214  0.33042266  0.45422492     0.33000
C176        C  0.12289644  0.29704603  0.38420954    -0.03200
C177        C  0.08545551  0.26341588  0.43829580    -0.04000
C178        C  0.16123551  0.27002316  0.44470927    -0.03900
C179        C  0.11858537  0.33369935  0.40524761    -0.03200
C180        C  0.08095595  0.30046256  0.45781775    -0.04000
C181        C  0.15760788  0.30541307  0.46692292    -0.03900
C182        C  0.11414435  0.36255830  0.37377817    -0.29300
N183        N  0.11600111  0.34426551  0.33516957     0.17200
C184        C  0.12130824  0.30456313  0.34140741    -0.29300
H185        H  0.12306278  0.28264116  0.31628881     0.19200
C186        C  0.05175087  0.29666095  0.48802282    -0.28300
N187        N  0.04075752  0.25829024  0.49048693     0.16000
C188        C  0.06148891  0.23712468  0.46124375    -0.28200
C189        C  0.19053359  0.30501198  0.49866343    -0.28500
N190        N  0.21326278  0.27083004  0.49454615     0.16500
H191        H  0.19613445  0.32665635  0.52396436     0.19100
C192        C  0.19575534  0.24951644  0.46177479    -0.28500
H193        H  0.20595841  0.22001096  0.45291099     0.19100
H194        H  0.06267000  0.20494161  0.45988773     0.19100
H195        H  0.10959080  0.39412323  0.37845583     0.19200
H196        H  0.04325073  0.31900562  0.51081592     0.19100
C197        C  0.21902346  0.41295881  0.61703591    -0.10300
C198        C  0.25118144  0.40068445  0.63619243    -0.11900
C199        C  0.51595277  0.38217274  0.64876422    -0.10300
C200        C  0.48535679  0.37780086  0.66901706    -0.11900
C201        C  0.50040672  0.23884488  0.55352599    -0.10300
C202        C  0.02116352  0.24411743  0.52616867    -0.11900
C203        C  0.24555895  0.25527417  0.52239304    -0.10300
C204        C  0.27258039  0.23879104  0.54485444    -0.11900
C205        C  0.29606485  0.07549499  0.45035493    -0.10300
C206        C  0.26405069  0.08768700  0.43080085    -0.11900
C207        C  0.99830472  0.10423523  0.42457603    -0.10300
C208        C  0.02878602  0.10916051  0.40415754    -0.11900
C209        C  0.04135615  0.16687740  0.95227559    -0.10300
C210        C  0.00930806  0.15375390  0.93356424    -0.11900
C211        C  0.24553941  0.13482586  0.92492315    -0.10300
C212        C  0.27662989  0.13032299  0.90531683    -0.11900
C213        C  0.23415977  0.49666785  0.03965925    -0.10300
C214        C  0.25211190  0.48786537  0.00826396    -0.11900
C215        C  0.47638046  0.49778628  0.03342852    -0.10300
C216        C  0.00415221  0.01376460  0.05530936    -0.11900
C217        C  0.46645572  0.32709056  0.11939224    -0.10300
C218        C  0.49836172  0.33878334  0.13943416    -0.11900
C219        C  0.23532381  0.36294712  0.16945246    -0.10300
C220        C  0.26604420  0.35727836  0.14964550    -0.11900
O221        O  0.26813447  0.80132234  0.03551477    -0.54800
C222        C  0.36113320  0.87704915  0.98555931     0.77800
O223        O  0.32036611  0.82026752  0.12610017    -0.56000
C224        C  0.27339852  0.76417991  0.03966584     0.77800
C225        C  0.42635924  0.82267985  0.10036763     0.80100
Cd226      Cd  0.34365138  0.82220208  0.05425774     1.37500
O227        O  0.36240301  0.84019049  0.97672671    -0.54800
O228        O  0.41696315  0.79381056  0.07512800    -0.53700
C229        C  0.29591350  0.85001462  0.12070431     0.80100
O230        O  0.39778728  0.84835313  0.10483927    -0.56000
O231        O  0.35235013  0.88553366  0.02315012    -0.54500
O232        O  0.31203641  0.75267285  0.04589908    -0.54500
O233        O  0.29628439  0.86900634  0.08582596    -0.53600
O234        O  0.10177988  0.89909897  0.28555519    -0.54800
C235        C  0.12417919  0.97121833  0.17557667     0.77800
O236        O  0.16051302  0.85734166  0.16403336    -0.56000
C237        C  0.11215748  0.86307055  0.29271824     0.77800
C238        C  0.03511852  0.85626045  0.16261222     0.80100
Cd239      Cd  0.11045690  0.89168594  0.20656231     1.37500
O240        O  0.11709661  0.96578625  0.21450196    -0.54800
O241        O  0.03251111  0.88799935  0.18421219    -0.53700
C242        C  0.19325177  0.87072013  0.18486752     0.80100
O243        O  0.07173147  0.84085844  0.16167572    -0.56000
O244        O  0.12199545  0.94077917  0.15191942    -0.54500
O245        O  0.11956245  0.84194167  0.26074067    -0.54500
O246        O  0.18783208  0.89145309  0.21758514    -0.53600
C247        C  0.37302579  0.98194408  0.91288159     0.33000
C248        C  0.36688220  0.91149962  0.95512548     0.33000
C249        C  0.38332850  0.94448744  0.88729243    -0.03200
C250        C  0.40198318  0.97741631  0.95249479    -0.04000
C251        C  0.32855066  0.97306202  0.92921139    -0.03900
C252        C  0.37971320  0.90752920  0.90850823    -0.03200
C253        C  0.39951212  0.94215402  0.97467054    -0.04000
C254        C  0.32545582  0.93569936  0.94900293    -0.03900
C255        C  0.37071675  0.87956780  0.87644370    -0.29300
N256        N  0.37085495  0.89798868  0.83781181     0.17200
C257        C  0.37722495  0.93735705  0.84442725    -0.29300
H258        H  0.37438579  0.95981432  0.81974053     0.19200
C259        C  0.42779306  0.94617218  0.01034799    -0.28300
N260        N  0.44626598  0.98279849  0.00879796     0.16000
C261        C  0.43085202  0.00192067  0.97363269    -0.28200
C262        C  0.29208353  0.93700165  0.97500719    -0.28500
N263        N  0.27706600  0.97422885  0.97556367     0.16500
H264        H  0.28385302  0.91434245  0.99758860     0.19100
C265        C  0.29738796  0.49710218  0.94755117    -0.28500
H266        H  0.29658676  0.52931066  0.94668665     0.19100
H267        H  0.43896441  0.53019158  0.96086519     0.19100
H268        H  0.36206894  0.84875668  0.88101770     0.19200
H269        H  0.43441098  0.92436058  0.03530125     0.19100
O270        O  0.15631414  0.65551978  0.10096063    -0.54800
C271        C  0.23632700  0.73607805  0.03732631     0.77800
O272        O  0.19098626  0.67768727  0.95151249    -0.56000
C273        C  0.14732818  0.62023965  0.08897376     0.77800
C274        C  0.08394513  0.67746883  0.97693289     0.80100
Cd275      Cd  0.16677480  0.67737398  0.02268453     1.37500
O276        O  0.24160514  0.69907985  0.04295410    -0.54800
O277        O  0.09071056  0.70163794  0.00798820    -0.53700
C278        C  0.21552428  0.64814981  0.95781022     0.80100
O279        O  0.11558365  0.65806907  0.96552449    -0.56000
O280        O  0.19775016  0.74736670  0.02966523    -0.54500
O281        O  0.14657999  0.61412749  0.04932312    -0.56100
O282        O  0.21518328  0.63002840  0.99324259    -0.53600
O283        O  0.39561378  0.52732326  0.85634173    -0.54800
C284        C  0.39525082  0.63119803  0.77851845     0.77800
O285        O  0.34990137  0.63241915  0.91365789    -0.56000
C286        C  0.37758829  0.52183229  0.89096269     0.77800
C287        C  0.47231700  0.63601461  0.91086532     0.80100
Cd288      Cd  0.39657652  0.60222920  0.86489180     1.37500
O289        O  0.40295921  0.59463579  0.78556666    -0.54800
O290        O  0.47379298  0.60249202  0.89240638    -0.53700
C291        C  0.31609115  0.62589244  0.89063022     0.80100
O292        O  0.43667262  0.65345646  0.90841416    -0.56000
O293        O  0.39012449  0.65285202  0.81069579    -0.54500
O294        O  0.36986291  0.55262808  0.91205853    -0.54500
O295        O  0.31957103  0.61143407  0.85385547    -0.53600
C296        C  0.13158235  0.01159319  0.15629956     0.33000
C297        C  0.14145107  0.58464064  0.11779801     0.33000
C298        C  0.14087303  0.54944889  0.18740913    -0.03200
C299        C  0.17139689  0.51620980  0.12882538    -0.04000
C300        C  0.09617640  0.52556663  0.12959815    -0.03900
C301        C  0.14478244  0.58649968  0.16711156    -0.03200
C302        C  0.17541246  0.55335520  0.10960804    -0.04000
C303        C  0.09928133  0.56147712  0.10802715    -0.03900
C304        C  0.15077270  0.61456940  0.19924994    -0.29300
N305        N  0.15027891  0.59536442  0.23749719     0.17200
C306        C  0.14437007  0.55588950  0.23039199    -0.29300
H307        H  0.14238450  0.53352230  0.25503258     0.19200
C308        C  0.20274568  0.54945600  0.07762502    -0.28300
N309        N  0.21370777  0.00998472  0.07502805     0.16000
C310        C  0.19374012  0.98868657  0.10477269    -0.28200
C311        C  0.06398101  0.56290966  0.07906914    -0.28500
N312        N  0.04037451  0.52942811  0.08431176     0.16500
H313        H  0.05731678  0.58520614  0.05462291     0.19100
C314        C  0.05728323  0.00534982  0.11260260    -0.28500
H315        H  0.04701465  0.97578029  0.12119083     0.19100
H316        H  0.19439923  0.95656448  0.10753902     0.19100
H317        H  0.15432555  0.64633917  0.19524342     0.19200
H318        H  0.21072760  0.57196170  0.05483802     0.19100
O319        O  0.49328246  0.54632314  0.54231147    -0.54800
C320        C  0.40097667  0.62529377  0.58866806     0.77800
O321        O  0.44432758  0.56505247  0.45040889    -0.56000
C322        C  0.48761359  0.00796289  0.53586471     0.77800
C323        C  0.33654843  0.57043465  0.47406749     0.80100
Cd324      Cd  0.41887950  0.56884053  0.52118224     1.37500
O325        O  0.40055234  0.58861169  0.59841136    -0.54800
O326        O  0.34383220  0.54364319  0.50236898    -0.53700
C327        C  0.96876959  0.59487713  0.45509735     0.80100
O328        O  0.36723353  0.59288927  0.46640743    -0.56000
O329        O  0.40905575  0.63307363  0.55068542    -0.54500
O330        O  0.44861024  0.49855040  0.53011428    -0.54500
O331        O  0.96901910  0.61326935  0.49040291    -0.53600
O332        O  0.14263613  0.71591878  0.35483866    -0.54800
C333        C  0.15209693  0.61240974  0.27939948     0.77800
O334        O  0.18993214  0.59131431  0.41038351    -0.56000
C335        C  0.13305333  0.72156901  0.39302469     0.77800
C336        C  0.06922938  0.61757340  0.38811087     0.80100
Cd337      Cd  0.15053086  0.64154242  0.36507616     1.37500
O338        O  0.16184004  0.64852621  0.28681367    -0.54800
O339        O  0.07322431  0.63548998  0.35321508    -0.53700
C340        C  0.22617810  0.60752790  0.41034080     0.80100
O341        O  0.10276641  0.60807889  0.41019994    -0.56000
O342        O  0.14330985  0.59133679  0.31099663    -0.54500
O343        O  0.13343466  0.69120742  0.41673811    -0.54500
O344        O  0.22820984  0.63985998  0.38967022    -0.53600
C345        C  0.38913727  0.73154648  0.65975852     0.33000
C346        C  0.39516617  0.66027176  0.61852338     0.33000
C347        C  0.38115187  0.69417666  0.68643920    -0.03200
C348        C  0.35850209  0.72561366  0.62152856    -0.04000
C349        C  0.43282204  0.72317797  0.64147924    -0.03900
C350        C  0.38467180  0.65706568  0.66581952    -0.03200
C351        C  0.36087432  0.68990375  0.59990882    -0.04000
C352        C  0.43599140  0.68549290  0.62247716    -0.03900
C353        C  0.39197324  0.62913198  0.69809549    -0.29300
N354        N  0.39111353  0.64800800  0.73644420     0.17200
C355        C  0.38561624  0.68745730  0.72941961    -0.29300
H356        H  0.38757244  0.71001800  0.75401929     0.19200
C357        C  0.32985640  0.69208047  0.56634196    -0.28300
N358        N  0.30990924  0.72799605  0.56851479     0.16000
C359        C  0.32710522  0.74850847  0.60201861    -0.28200
C360        C  0.46883684  0.68645962  0.59590636    -0.28500
N361        N  0.48300781  0.72387250  0.59380457     0.16500
H362        H  0.47710678  0.66330465  0.57392202     0.19100
C363        C  0.46088066  0.74702887  0.62019799    -0.28500
H364        H  0.46103205  0.77925350  0.61977262     0.19100
H365        H  0.31721091  0.77796548  0.61146952     0.19100
H366        H  0.39957787  0.59800551  0.69402029     0.19200
H367        H  0.32223346  0.66941586  0.54253617     0.19100
O368        O  0.10657133  0.90373720  0.47409891    -0.54800
C369        C  0.02394626  0.98067912  0.53991006     0.77800
O370        O  0.07046495  0.92124930  0.62446824    -0.56000
C371        C  0.11132386  0.86731112  0.48407519     0.77800
C372        C  0.17640100  0.92010082  0.59882687     0.80100
Cd373      Cd  0.09333499  0.92157218  0.55304347     1.37500
O374        O  0.01818998  0.94373412  0.53431273    -0.54800
O375        O  0.16845829  0.94712218  0.57087646    -0.53700
C376        C  0.04543551  0.89208071  0.61815262     0.80100
O377        O  0.14599749  0.89741629  0.60680267    -0.56000
O378        O  0.06267388  0.99155266  0.54729783    -0.54500
O379        O  0.10822742  0.85899767  0.52292459    -0.54500
O380        O  0.04491016  0.87428432  0.58247730    -0.53600
O381        O  0.36505241  0.77681673  0.71491226    -0.54800
C382        C  0.36530101  0.88094626  0.79583321     0.77800
O383        O  0.41184710  0.88697527  0.66562134    -0.56000
C384        C  0.38196676  0.77191016  0.67956463     0.77800
C385        C  0.28757792  0.88423652  0.66249920     0.80100
Cd386      Cd  0.36366515  0.85168316  0.70916022     1.37500
O387        O  0.35836452  0.84419145  0.78910702    -0.54800
O388        O  0.28650504  0.85105200  0.68170284    -0.53700
C389        C  0.44520971  0.87549899  0.68687924     0.80100
O390        O  0.32302559  0.90207101  0.66460076    -0.56000
O391        O  0.36874698  0.90257457  0.76332097    -0.54500
O392        O  0.38890731  0.80314330  0.65876206    -0.54500
O393        O  0.44085841  0.85587112  0.72063122    -0.53600
C394        C  0.12544405  0.76196962  0.41214043     0.33000
C395        C  0.11754859  0.83290648  0.45383014     0.33000
C396        C  0.12483411  0.79949539  0.38412437    -0.03200
C397        C  0.08469069  0.76660424  0.43643617    -0.04000
C398        C  0.16038354  0.77161655  0.44572189    -0.03900
C399        C  0.12039558  0.83625477  0.40496123    -0.03200
C400        C  0.08035858  0.80361950  0.45606338    -0.04000
C401        C  0.15695978  0.80710757  0.46769077    -0.03900
C402        C  0.11463060  0.86472526  0.37313165    -0.29300
N403        N  0.11598130  0.84603411  0.33465067     0.17200
C404        C  0.12209480  0.80652202  0.34128862    -0.29300
H405        H  0.12287436  0.78426095  0.31639862     0.19200
C406        C  0.05010994  0.80010755  0.48526502    -0.28300
N407        N  0.03823324  0.76190196  0.48688722     0.16000
C408        C  0.05942394  0.74060674  0.45817164    -0.28200
C409        C  0.19016325  0.80690130  0.49916077    -0.28500
N410        N  0.21270670  0.77258563  0.49519795     0.16500
H411        H  0.19667439  0.82922001  0.52360193     0.19100
C412        C  0.19484813  0.75103845  0.46278818    -0.28500
H413        H  0.20546001  0.72180539  0.45344116     0.19100
H414        H  0.06007411  0.70841663  0.45660269     0.19100
H415        H  0.10879787  0.89614312  0.37747284     0.19200
H416        H  0.04150928  0.82236385  0.50809473     0.19100
C417        C  0.21804136  0.91324699  0.62019351    -0.10300
C418        C  0.25032756  0.90108737  0.63933148    -0.11900
C419        C  0.51666968  0.88620953  0.65090007    -0.10300
C420        C  0.48606275  0.88201295  0.67127537    -0.11900
C421        C  0.50448509  0.73624990  0.55852202    -0.10300
C422        C  0.01768762  0.74750161  0.52179436    -0.11900
C423        C  0.24708897  0.75831406  0.52128301    -0.10300
C424        C  0.27623426  0.74307238  0.54202980    -0.11900
C425        C  0.29526522  0.57740610  0.45215315    -0.10300
C426        C  0.26321734  0.58993492  0.43298607    -0.11900
C427        C  0.99825371  0.60462015  0.42425321    -0.10300
C428        C  0.02854437  0.61022891  0.40376651    -0.11900
C429        C  0.04227933  0.66956510  0.95612292    -0.10300
C430        C  0.01047457  0.65607526  0.93725905    -0.11900
C431        C  0.24521254  0.63790636  0.92740668    -0.10300
C432        C  0.27561586  0.63262415  0.90701007    -0.11900
C433        C  0.23536553  0.99579014  0.04059894    -0.10300
C434        C  0.25381956  0.98727923  0.00942773    -0.11900
C435        C  0.47768758  0.99941467  0.03687588    -0.10300
C436        C  0.00585647  0.51532385  0.05834763    -0.11900
C437        C  0.46762051  0.82811167  0.12273563    -0.10300
C438        C  0.49971161  0.83995774  0.14228739    -0.11900
C439        C  0.23459732  0.86441537  0.17028268    -0.10300
C440        C  0.26587752  0.85944112  0.15107938    -0.11900
O441        O  0.76813141  0.30132779  0.03552644    -0.54800
C442        C  0.86113438  0.37704959  0.98556511     0.77800
O443        O  0.82036986  0.32026612  0.12610959    -0.56000
C444        C  0.77339497  0.26418460  0.03967037     0.77800
C445        C  0.92636050  0.32268435  0.10037529     0.80100
Cd446      Cd  0.84365153  0.32220463  0.05426578     1.37500
O447        O  0.86240544  0.34019059  0.97673447    -0.54800
O448        O  0.91696169  0.29381123  0.07514160    -0.53700
C449        C  0.79591867  0.35001463  0.12071719     0.80100
O450        O  0.89779098  0.34836130  0.10484109    -0.56000
O451        O  0.85234854  0.38553542  0.02315483    -0.54500
O452        O  0.81203302  0.25267674  0.04589994    -0.54500
O453        O  0.79628901  0.36900877  0.08584025    -0.53600
O454        O  0.60177416  0.39910243  0.28555643    -0.54800
C455        C  0.62418452  0.47121981  0.17557711     0.77800
O456        O  0.66051863  0.35734186  0.16404049    -0.56000
C457        C  0.61215184  0.36307434  0.29272131     0.77800
C458        C  0.53512331  0.35626035  0.16261201     0.80100
Cd459      Cd  0.61045957  0.39168788  0.20656456     1.37500
O460        O  0.61710260  0.46578827  0.21450261    -0.54800
O461        O  0.53251380  0.38799717  0.18421505    -0.53700
C462        C  0.69325615  0.37071948  0.18487744     0.80100
O463        O  0.57173763  0.34086171  0.16167257    -0.56000
O464        O  0.62199902  0.44078042  0.15192027    -0.54500
O465        O  0.61956195  0.34194540  0.26074522    -0.54500
O466        O  0.68783418  0.39145266  0.21759437    -0.53600
C467        C  0.87303284  0.48194257  0.91288541     0.33000
C468        C  0.86688558  0.41149903  0.95513022     0.33000
C469        C  0.88333609  0.44448519  0.88729731    -0.03200
C470        C  0.90198803  0.47741507  0.95250003    -0.04000
C471        C  0.82855658  0.47306159  0.92921304    -0.03900
C472        C  0.87971920  0.40752718  0.90851399    -0.03200
C473        C  0.89951502  0.44215337  0.97467631    -0.04000
C474        C  0.82545968  0.43569893  0.94900425    -0.03900
C475        C  0.87071875  0.37956613  0.87645003    -0.29300
N476        N  0.87085552  0.39798615  0.83781782     0.17200
C477        C  0.87722874  0.43735426  0.84443239    -0.29300
H478        H  0.87438898  0.45981127  0.81974559     0.19200
C479        C  0.92779476  0.44617154  0.01035478    -0.28300
N480        N  0.94626870  0.48279739  0.00880476     0.16000
C481        C  0.93085668  0.50191936  0.97363849    -0.28200
C482        C  0.79208617  0.43700182  0.97500672    -0.28500
N483        N  0.77707106  0.47422966  0.97556439     0.16500
H484        H  0.78385382  0.41434233  0.99758753     0.19100
C485        C  0.79738488  0.99710709  0.94755141    -0.28500
H486        H  0.79658457  0.02931547  0.94668679     0.19100
H487        H  0.93896064  0.03019262  0.96086416     0.19100
H488        H  0.86206811  0.34875520  0.88102510     0.19200
H489        H  0.93441165  0.42436013  0.03530801     0.19100
O490        O  0.65631097  0.15552404  0.10095808    -0.54800
C491        C  0.73632298  0.23608259  0.03732696     0.77800
O492        O  0.69098475  0.17768832  0.95150979    -0.56000
C493        C  0.64731876  0.12024512  0.08897150     0.77800
C494        C  0.58394278  0.17746842  0.97692461     0.80100
Cd495      Cd  0.66677074  0.17737712  0.02268097     1.37500
O496        O  0.74160128  0.19908384  0.04295032    -0.54800
O497        O  0.59070758  0.20164162  0.00797641    -0.53700
C498        C  0.71552489  0.14815270  0.95780987     0.80100
O499        O  0.61558147  0.15806604  0.96552078    -0.56000
O500        O  0.69774588  0.24737123  0.02966685    -0.54500
O501        O  0.64656678  0.11413326  0.04932068    -0.56100
O502        O  0.71518373  0.13003252  0.99324299    -0.53600
O503        O  0.89561269  0.02732548  0.85634144    -0.54800
C504        C  0.89525379  0.13119742  0.77851756     0.77800
O505        O  0.84990492  0.13241982  0.91366103    -0.56000
C506        C  0.87758501  0.02183480  0.89096121     0.77800
C507        C  0.97231650  0.13601631  0.91087010     0.80100
Cd508      Cd  0.89657864  0.10223118  0.86489244     1.37500
O509        O  0.90296143  0.09463523  0.78556666    -0.54800
O510        O  0.97379193  0.10249060  0.89241749    -0.53700
C511        C  0.81609462  0.12589752  0.89063200     0.80100
O512        O  0.93667420  0.15346168  0.90840976    -0.56000
O513        O  0.89013008  0.15285247  0.81069476    -0.54500
O514        O  0.86985989  0.05263066  0.91205709    -0.54500
O515        O  0.81957415  0.11144281  0.85385557    -0.53600
C516        C  0.63158876  0.51159440  0.15629943     0.33000
C517        C  0.64144073  0.08464632  0.11779599     0.33000
C518        C  0.64086835  0.04945300  0.18740715    -0.03200
C519        C  0.67138369  0.01621421  0.12881867    -0.04000
C520        C  0.59616435  0.02557408  0.12959977    -0.03900
C521        C  0.64477753  0.08650408  0.16710972    -0.03200
C522        C  0.67539866  0.05335935  0.10960150    -0.04000
C523        C  0.59926908  0.06148490  0.10802885    -0.03900
C524        C  0.65077093  0.11457311  0.19924820    -0.29300
N525        N  0.65027941  0.09536801  0.23749543     0.17200
C526        C  0.64436872  0.05589317  0.23039014    -0.29300
H527        H  0.64238322  0.03352595  0.25503063     0.19200
C528        C  0.70273358  0.04946116  0.07761997    -0.28300
N529        N  0.71371812  0.50998548  0.07503190     0.16000
C530        C  0.69374888  0.48868732  0.10477550    -0.28200
C531        C  0.56397031  0.06291618  0.07906905    -0.28500
N532        N  0.54036446  0.02943417  0.08431056     0.16500
H533        H  0.55730774  0.08521173  0.05462039     0.19100
C534        C  0.55729004  0.50535173  0.11260172    -0.28500
H535        H  0.54702027  0.47578191  0.12119080     0.19100
H536        H  0.69440760  0.45656537  0.10754177     0.19100
H537        H  0.65432361  0.14634375  0.19524167     0.19200
H538        H  0.71071633  0.07196740  0.05483366     0.19100
O539        O  0.99328177  0.04632090  0.54230421    -0.54800
C540        C  0.90097472  0.12529307  0.58866669     0.77800
O541        O  0.94432300  0.06505707  0.45040342    -0.56000
C542        C  0.98760707  0.50795194  0.53588135     0.77800
C543        C  0.83654833  0.07043879  0.47406189     0.80100
Cd544      Cd  0.91887875  0.06884150  0.52117810     1.37500
O545        O  0.90054519  0.08861038  0.59840694    -0.54800
O546        O  0.84383174  0.04364518  0.50236105    -0.53700
C547        C  0.46876639  0.09488544  0.45508230     0.80100
O548        O  0.86723339  0.09289450  0.46640462    -0.56000
O549        O  0.90906050  0.13307424  0.55068612    -0.54500
O550        O  0.94860842  0.99854960  0.53010533    -0.54500
O551        O  0.46901966  0.11327752  0.49038819    -0.53600
O552        O  0.64262618  0.21592419  0.35483943    -0.54800
C553        C  0.65209870  0.11241362  0.27939770     0.77800
O554        O  0.68993009  0.09132507  0.41038772    -0.56000
C555        C  0.63305317  0.22157359  0.39302864     0.77800
C556        C  0.56922676  0.11757876  0.38809840     0.80100
Cd557      Cd  0.65053037  0.14154849  0.36507348     1.37500
O558        O  0.66183988  0.14853077  0.28681107    -0.54800
O559        O  0.57322473  0.13549998  0.35320595    -0.53700
C560        C  0.72617790  0.10753411  0.41033676     0.80100
O561        O  0.60276196  0.10807997  0.41018815    -0.56000
O562        O  0.64331361  0.09134063  0.31099550    -0.54500
O563        O  0.63344481  0.19121203  0.41674274    -0.54500
O564        O  0.72821123  0.13986205  0.38965899    -0.53600
C565        C  0.88913062  0.23154324  0.65976045     0.33000
C566        C  0.89516235  0.16027020  0.61852352     0.33000
C567        C  0.88113553  0.19417331  0.68643752    -0.03200
C568        C  0.85850291  0.22561478  0.62152443    -0.04000
C569        C  0.93281927  0.22317260  0.64149016    -0.03900
C570        C  0.88465695  0.15706211  0.66581692    -0.03200
C571        C  0.86087661  0.18990593  0.59990332    -0.04000
C572        C  0.93598988  0.18548771  0.62248751    -0.03900
C573        C  0.89196949  0.12913028  0.69809376    -0.29300
N574        N  0.89111189  0.14800615  0.73644274     0.17200
C575        C  0.88560891  0.18745416  0.72941754    -0.29300
H576        H  0.88756881  0.21001655  0.75401778     0.19200
C577        C  0.82986694  0.19208807  0.56632919    -0.28300
N578        N  0.80992329  0.22800566  0.56849920     0.16000
C579        C  0.82711338  0.24851402  0.60200865    -0.28200
C580        C  0.96883875  0.18645444  0.59592086    -0.28500
N581        N  0.98301043  0.22386701  0.59382063     0.16500
H582        H  0.97711004  0.16329944  0.57393609     0.19100
C583        C  0.96088061  0.24702339  0.62021185    -0.28500
H584        H  0.96103127  0.27924712  0.61978561     0.19100
H585        H  0.81721997  0.27797143  0.61145931     0.19100
H586        H  0.89958086  0.09800545  0.69401834     0.19200
H587        H  0.82224688  0.16942504  0.54251951     0.19100
O588        O  0.60656241  0.40374015  0.47410499    -0.54800
C589        C  0.52394823  0.48068187  0.53992034     0.77800
O590        O  0.57046652  0.42125051  0.62447792    -0.56000
C591        C  0.61132675  0.36731547  0.48408215     0.77800
C592        C  0.67640498  0.42010861  0.59883326     0.80100
Cd593      Cd  0.59333748  0.42157584  0.55305247     1.37500
O594        O  0.51819221  0.44373656  0.53432569    -0.54800
O595        O  0.66846072  0.44712876  0.57088181    -0.53700
C596        C  0.54543821  0.39208120  0.61816162     0.80100
O597        O  0.64600204  0.39742445  0.60681181    -0.56000
O598        O  0.56267590  0.49155632  0.54730580    -0.54500
O599        O  0.60824233  0.35900291  0.52293348    -0.54500
O600        O  0.54491394  0.37428566  0.58248589    -0.53600
O601        O  0.86503962  0.27681242  0.71491251    -0.54800
C602        C  0.86529795  0.38094325  0.79583964     0.77800
O603        O  0.91185455  0.38696915  0.66563689    -0.56000
C604        C  0.88195951  0.27190654  0.67956763     0.77800
C605        C  0.78758095  0.38423953  0.66250298     0.80100
Cd606      Cd  0.86366306  0.35167941  0.70916721     1.37500
O607        O  0.85836898  0.34418702  0.78911470    -0.54800
O608        O  0.78650287  0.35105723  0.68171048    -0.53700
C609        C  0.94521372  0.37548904  0.68689799     0.80100
O610        O  0.82303189  0.40206846  0.66460111    -0.56000
O611        O  0.86873466  0.40257232  0.76332647    -0.54500
O612        O  0.88890673  0.30314041  0.65876882    -0.54500
O613        O  0.94085621  0.35586020  0.72064811    -0.53600
C614        C  0.62544363  0.26197376  0.41214575     0.33000
C615        C  0.61754972  0.33291088  0.45383623     0.33000
C616        C  0.62481702  0.29949869  0.38412778    -0.03200
C617        C  0.58469876  0.26660312  0.43645585    -0.04000
C618        C  0.66039243  0.27162755  0.44571526    -0.03900
C619        C  0.62037962  0.33625808  0.40496479    -0.03200
C620        C  0.58036714  0.30361784  0.45608354    -0.04000
C621        C  0.65696951  0.30711847  0.46768492    -0.03900
C622        C  0.61461857  0.36472920  0.37313509    -0.29300
N623        N  0.61596913  0.34603776  0.33465403     0.17200
C624        C  0.62208058  0.30652544  0.34129211    -0.29300
H625        H  0.62286542  0.28426502  0.31640239     0.19200
C626        C  0.55012468  0.30010378  0.48529115    -0.28300
N627        N  0.53825066  0.26189753  0.48691494     0.16000
C628        C  0.55943721  0.24060356  0.45819474    -0.28200
C629        C  0.69018025  0.30691585  0.49914729    -0.28500
N630        N  0.71272751  0.27260304  0.49517868     0.16500
H631        H  0.69669225  0.32923365  0.52358897     0.19100
C632        C  0.69486390  0.25105377  0.46277294    -0.28500
H633        H  0.70547514  0.22182124  0.45342550     0.19100
H634        H  0.56008711  0.20841446  0.45662340     0.19100
H635        H  0.60879357  0.39614787  0.37747634     0.19200
H636        H  0.54152516  0.32236025  0.50812195     0.19100
C637        C  0.71804641  0.41325513  0.62019795    -0.10300
C638        C  0.75033245  0.40109396  0.63933507    -0.11900
C639        C  0.01667740  0.38619596  0.65092501    -0.10300
C640        C  0.98606964  0.38200004  0.67129935    -0.11900
C641        C  0.00448802  0.23624487  0.55853841    -0.10300
C642        C  0.51770746  0.24749611  0.52182315    -0.11900
C643        C  0.74711108  0.25833086  0.52126162    -0.10300
C644        C  0.77625429  0.24308642  0.54200939    -0.11900
C645        C  0.79526545  0.07741132  0.45214735    -0.10300
C646        C  0.76321749  0.08994070  0.43298093    -0.11900
C647        C  0.49824897  0.10462699  0.42423634    -0.10300
C648        C  0.52854029  0.11023451  0.40375038    -0.11900
C649        C  0.54227734  0.16956343  0.95611384    -0.10300
C650        C  0.51047200  0.15607361  0.93725070    -0.11900
C651        C  0.74521545  0.13791035  0.92740812    -0.10300
C652        C  0.77561946  0.13262932  0.90701212    -0.11900
C653        C  0.73537501  0.49579078  0.04060243    -0.10300
C654        C  0.75382724  0.48728025  0.00943007    -0.11900
C655        C  0.97769201  0.49941220  0.03688185    -0.10300
C656        C  0.50584968  0.01532791  0.05834341    -0.11900
C657        C  0.96762203  0.32811583  0.12274328    -0.10300
C658        C  0.99971418  0.33996058  0.14229440    -0.11900
C659        C  0.73460301  0.36441381  0.17029617    -0.10300
C660        C  0.76588389  0.35943981  0.15109389    -0.11900
O661        O  0.76673637  0.79890910  0.03208734    -0.54800
C662        C  0.85859331  0.87624505  0.98285306     0.77800
O663        O  0.81953143  0.81776233  0.12329752    -0.56000
C664        C  0.77223038  0.76179258  0.03630441     0.77800
C665        C  0.92521170  0.82152379  0.09691697     0.80100
Cd666      Cd  0.84210828  0.82053419  0.05121807     1.37500
O667        O  0.85967412  0.83945714  0.97367215    -0.54800
O668        O  0.91635092  0.79333562  0.07062563    -0.53700
C669        C  0.79524069  0.84768760  0.11855056     0.80100
O670        O  0.89603555  0.84631902  0.10250028    -0.56000
O671        O  0.85033480  0.88442572  0.02067522    -0.54500
O672        O  0.81094118  0.75059689  0.04287159    -0.54500
O673        O  0.79511348  0.86690480  0.08378121    -0.53600
O674        O  0.60336863  0.89825845  0.28694170    -0.54800
C675        C  0.62692400  0.97237510  0.17756527     0.77800
O676        O  0.66113257  0.85751445  0.16430374    -0.56000
C677        C  0.61369773  0.86213228  0.29360483     0.77800
C678        C  0.53678734  0.85751661  0.16475487     0.80100
Cd679      Cd  0.61270983  0.89239683  0.20797367     1.37500
O680        O  0.62094888  0.96661240  0.21670416    -0.54800
O681        O  0.53483382  0.89003236  0.18511342    -0.53700
C682        C  0.69445576  0.87024073  0.18464887     0.80100
O683        O  0.57304017  0.84131293  0.16447687    -0.56000
O684        O  0.62375790  0.94212551  0.15365766    -0.54500
O685        O  0.62215071  0.84169799  0.26146493    -0.54500
O686        O  0.69008482  0.89115098  0.21747277    -0.53600
C687        C  0.87035707  0.98144337  0.91034157     0.33000
C688        C  0.86419724  0.91086959  0.95258200     0.33000
C689        C  0.87949204  0.94392635  0.88440884    -0.03200
C690        C  0.90022543  0.97633601  0.94928369    -0.04000
C691        C  0.82626784  0.97297046  0.92771189    -0.03900
C692        C  0.87585512  0.90701901  0.90558705    -0.03200
C693        C  0.89766496  0.94103638  0.97148090    -0.04000
C694        C  0.82313390  0.93567666  0.94756491    -0.03900
C695        C  0.86757745  0.87891594  0.87359303    -0.29300
N696        N  0.86811944  0.89733465  0.83497326     0.17200
C697        C  0.87415780  0.93677833  0.84152452    -0.29300
H698        H  0.87182300  0.95915527  0.81673695     0.19200
C699        C  0.92634954  0.94474703  0.00684758    -0.28300
N700        N  0.94523571  0.98115823  0.00507724     0.16000
C701        C  0.92968907  0.00047352  0.97008089    -0.28200
C702        C  0.79010060  0.93724770  0.97397105    -0.28500
N703        N  0.77517159  0.97453780  0.97439139     0.16500
H704        H  0.78196041  0.91470238  0.99671363     0.19100
C705        C  0.79940687  0.49698566  0.94900333    -0.28500
H706        H  0.79858537  0.52919672  0.94841049     0.19100
H707        H  0.94010060  0.53161524  0.96431510     0.19100
H708        H  0.85943504  0.84797366  0.87812052     0.19200
H709        H  0.93273290  0.92299833  0.03191266     0.19100
O710        O  0.65462300  0.65375858  0.09766692    -0.54800
C711        C  0.73530646  0.73342210  0.03372188     0.77800
O712        O  0.69081889  0.67445306  0.94818244    -0.56000
C713        C  0.64540430  0.61838220  0.08624482     0.77800
C714        C  0.58304575  0.67460474  0.97307071     0.80100
Cd715      Cd  0.66579176  0.67441014  0.01904182     1.37500
O716        O  0.74067720  0.69645873  0.03964368    -0.54800
O717        O  0.58986068  0.69877488  0.00410022    -0.53700
C718        C  0.71511589  0.64478221  0.95470511     0.80100
O719        O  0.61463497  0.65510396  0.96170153    -0.56000
O720        O  0.69671908  0.74448522  0.02561325    -0.54500
O721        O  0.64493726  0.61166171  0.04669739    -0.56100
O722        O  0.71403284  0.62646642  0.98997171    -0.53600
O723        O  0.90003021  0.52756025  0.85964747    -0.54800
C724        C  0.89919208  0.63044355  0.78036877     0.77800
O725        O  0.85086577  0.63261489  0.91369224    -0.56000
C726        C  0.88046098  0.52224041  0.89339705     0.77800
C727        C  0.97405112  0.63767388  0.91417518     0.80100
Cd728      Cd  0.89960124  0.60244957  0.86695917     1.37500
O729        O  0.90800117  0.59418461  0.78802176    -0.54800
O730        O  0.97612033  0.60364620  0.89689716    -0.53700
C731        C  0.81779787  0.62465869  0.89006384     0.80100
O732        O  0.93837399  0.65499940  0.91009616    -0.56000
O733        O  0.89271877  0.65223963  0.81210671    -0.54500
O734        O  0.87148382  0.55315520  0.91372757    -0.54500
O735        O  0.82266175  0.60960143  0.85381671    -0.53600
C736        C  0.63419917  0.01289839  0.15834493     0.33000
C737        C  0.63915539  0.58321267  0.11560237     0.33000
C738        C  0.63833039  0.54813677  0.18532315    -0.03200
C739        C  0.66884797  0.51475983  0.12688604    -0.04000
C740        C  0.59363055  0.52431756  0.12750068    -0.03900
C741        C  0.64246071  0.58517906  0.16501680    -0.03200
C742        C  0.67296255  0.55177828  0.10763173    -0.04000
C743        C  0.59690557  0.56017148  0.10585691    -0.03900
C744        C  0.64895481  0.61310704  0.19730785    -0.29300
N745        N  0.64851399  0.59381034  0.23555151     0.17200
C746        C  0.64217777  0.55442194  0.22831518    -0.29300
H747        H  0.64030605  0.53197409  0.25289044     0.19200
C748        C  0.70181022  0.54822497  0.07702232    -0.28300
N749        N  0.71370369  0.01104045  0.07479712     0.16000
C750        C  0.69453002  0.98989207  0.10516757    -0.28200
C751        C  0.56184512  0.56151163  0.07661716    -0.28500
N752        N  0.53820013  0.52804785  0.08176191     0.16500
H753        H  0.55546273  0.58365891  0.05195596     0.19100
C754        C  0.55970717  0.00666206  0.11493623    -0.28500
H755        H  0.54940023  0.97714352  0.12365115     0.19100
H756        H  0.69435869  0.95773146  0.10737611     0.19100
H757        H  0.65293224  0.64483688  0.19339729     0.19200
H758        H  0.71044193  0.57081782  0.05459530     0.19100
O759        O  0.99360583  0.54494124  0.54080271    -0.54800
C760        C  0.90032095  0.62320548  0.58873206     0.77800
O761        O  0.94362393  0.56572263  0.44926659    -0.56000
C762        C  0.98736187  0.00932328  0.53746392     0.77800
C763        C  0.83716465  0.56898975  0.47291443     0.80100
Cd764      Cd  0.91917552  0.56755334  0.52060427     1.37500
O765        O  0.90439567  0.58680730  0.59912890    -0.54800
O766        O  0.84497364  0.54109862  0.49988731    -0.53700
C767        C  0.46844017  0.59507801  0.45525895     0.80100
O768        O  0.86714757  0.59285932  0.46705403    -0.56000
O769        O  0.90431783  0.63098085  0.54988127    -0.54500
O770        O  0.94881229  0.49718951  0.52866947    -0.54500
O771        O  0.46742503  0.61488669  0.48958568    -0.53600
O772        O  0.64112510  0.71365099  0.35428154    -0.54800
C773        C  0.65091747  0.61060102  0.27763199     0.77800
O774        O  0.69080082  0.58837103  0.40777453    -0.56000
C775        C  0.63314664  0.71917541  0.39295895     0.77800
C776        C  0.56939862  0.61583495  0.38799243     0.80100
Cd777      Cd  0.65057455  0.63923554  0.36385152     1.37500
O778        O  0.66172738  0.64641688  0.28536710    -0.54800
O779        O  0.57320063  0.63380435  0.35310671    -0.53700
C780        C  0.72684730  0.60503887  0.40812643     0.80100
O781        O  0.60307287  0.60575344  0.40954810    -0.56000
O782        O  0.64166632  0.58956605  0.30911399    -0.54500
O783        O  0.63519604  0.68878476  0.41667479    -0.54500
O784        O  0.72847180  0.63772487  0.38802329    -0.53600
C785        C  0.88813982  0.72977027  0.65957680     0.33000
C786        C  0.89435807  0.65813183  0.61860060     0.33000
C787        C  0.88682873  0.69258333  0.68781332    -0.03200
C788        C  0.85355906  0.72093467  0.62540443    -0.04000
C789        C  0.92929995  0.72352854  0.63614138    -0.03900
C790        C  0.89050332  0.65545538  0.66749257    -0.03200
C791        C  0.85617926  0.68517586  0.60368148    -0.04000
C792        C  0.93259081  0.68621792  0.61691930    -0.03900
C793        C  0.89637146  0.62751966  0.69991871    -0.29300
N794        N  0.89569809  0.64686680  0.73811929     0.17200
C795        C  0.89024218  0.68632524  0.73078839    -0.29300
H796        H  0.89051151  0.70903303  0.75521674     0.19200
C797        C  0.82479093  0.68707466  0.57043268    -0.28300
N798        N  0.80400130  0.72250839  0.57321907     0.16000
C799        C  0.82121701  0.74316394  0.60659403    -0.28200
C800        C  0.96433860  0.68798200  0.58917838    -0.28500
N801        N  0.97838255  0.72556049  0.58795133     0.16500
H802        H  0.97266957  0.66511957  0.56687727     0.19100
C803        C  0.95698598  0.74809347  0.61553133    -0.28500
H804        H  0.95798447  0.78028098  0.61693139     0.19100
H805        H  0.81219775  0.77315997  0.61504529     0.19100
H806        H  0.90200322  0.59598850  0.69613178     0.19200
H807        H  0.81877550  0.66534083  0.54529120     0.19100
O808        O  0.60570220  0.90135629  0.47359226    -0.54800
C809        C  0.52418652  0.97932578  0.53826682     0.77800
O810        O  0.57181657  0.92336080  0.62444176    -0.56000
C811        C  0.61111747  0.86513192  0.48414505     0.77800
C812        C  0.67716406  0.91946618  0.59622731     0.80100
Cd813      Cd  0.59355922  0.92059475  0.55230590     1.37500
O814        O  0.51836196  0.94227826  0.53349919    -0.54800
O815        O  0.66831362  0.94711310  0.56921113    -0.53700
C816        C  0.54614960  0.89447840  0.61963469     0.80100
O817        O  0.64743449  0.89591155  0.60396870    -0.56000
O818        O  0.56296480  0.99033360  0.54497602    -0.54500
O819        O  0.60866553  0.85738353  0.52322309    -0.54500
O820        O  0.54502577  0.87531882  0.58474437    -0.53600
O821        O  0.86634384  0.77562270  0.71510469    -0.54800
C822        C  0.86346998  0.88011568  0.79307102     0.77800
O823        O  0.91135397  0.88332684  0.66259403    -0.56000
C824        C  0.88096612  0.77029186  0.67872003     0.77800
C825        C  0.78788604  0.88346255  0.65972983     0.80100
Cd826      Cd  0.86275422  0.85018854  0.70699287     1.37500
O827        O  0.85470636  0.84367154  0.78637602    -0.54800
O828        O  0.78622263  0.85006414  0.67844018    -0.53700
C829        C  0.94442288  0.87221474  0.68454133     0.80100
O830        O  0.82337124  0.90120729  0.66273784    -0.56000
O831        O  0.86934686  0.90124621  0.76067760    -0.54500
O832        O  0.88521851  0.80108167  0.65634398    -0.54500
O833        O  0.93970326  0.85400473  0.71910171    -0.53600
C834        C  0.62536140  0.75952285  0.41236891     0.33000
C835        C  0.61730884  0.83042427  0.45421610     0.33000
C836        C  0.62290757  0.79704642  0.38420192    -0.03200
C837        C  0.58546214  0.76341798  0.43828615    -0.04000
C838        C  0.66124240  0.77002397  0.44470483    -0.03900
C839        C  0.61859543  0.83369996  0.40523922    -0.03200
C840        C  0.58096181  0.80046497  0.45780698    -0.04000
C841        C  0.65761339  0.80541421  0.46691775    -0.03900
C842        C  0.61415139  0.86255838  0.37376957    -0.29300
N843        N  0.61600746  0.84426510  0.33516120     0.17200
C844        C  0.62131725  0.80456296  0.34139941    -0.29300
H845        H  0.62307041  0.78264084  0.31628119     0.19200
C846        C  0.55175378  0.79666445  0.48800911    -0.28300
N847        N  0.54075858  0.75829421  0.49047251     0.16000
C848        C  0.56149212  0.73712787  0.46123162    -0.28200
C849        C  0.69053359  0.80501084  0.49866408    -0.28500
N850        N  0.71326130  0.77082742  0.49455101     0.16500
H851        H  0.69613039  0.82665393  0.52396672     0.19100
C852        C  0.69575815  0.74951503  0.46177648    -0.28500
H853        H  0.70595969  0.72000840  0.45291566     0.19100
H854        H  0.56267210  0.70494395  0.45987590     0.19100
H855        H  0.60959456  0.89412216  0.37844665     0.19200
H856        H  0.54325213  0.81901031  0.51080189     0.19100
C857        C  0.71902489  0.91295731  0.61702416    -0.10300
C858        C  0.75118189  0.90068187  0.63618177    -0.11900
C859        C  0.01595031  0.88217384  0.64875578    -0.10300
C860        C  0.98535489  0.87780313  0.66900954    -0.11900
C861        C  0.00038668  0.73885076  0.55349703    -0.10300
C862        C  0.52116174  0.74412211  0.52615280    -0.11900
C863        C  0.74554987  0.75526862  0.52240519    -0.10300
C864        C  0.77256553  0.73878332  0.54487200    -0.11900
C865        C  0.79606286  0.57548374  0.45036314    -0.10300
C866        C  0.76404957  0.58767747  0.43080867    -0.11900
C867        C  0.49830795  0.60423212  0.42458053    -0.10300
C868        C  0.52878945  0.60915831  0.40416240    -0.11900
C869        C  0.54135927  0.66687489  0.95226714    -0.10300
C870        C  0.50931017  0.65375228  0.93355674    -0.11900
C871        C  0.74554399  0.63482923  0.92491457    -0.10300
C872        C  0.77663520  0.63032580  0.90530944    -0.11900
C873        C  0.73415390  0.99667396  0.03965793    -0.10300
C874        C  0.75210809  0.98787138  0.00826397    -0.11900
C875        C  0.97637447  0.99778427  0.03342784    -0.10300
C876        C  0.50415880  0.51376691  0.05530897    -0.11900
C877        C  0.96645104  0.82709279  0.11939053    -0.10300
C878        C  0.99835644  0.83878496  0.13943388    -0.11900
C879        C  0.73531734  0.86294495  0.16944351    -0.10300
C880        C  0.76603807  0.85727446  0.14963767    -0.11900
loop_ 
_geom_bond_atom_site_label_1 
_geom_bond_atom_site_label_2 
_geom_bond_distance 
_geom_bond_site_symmetry_2 
_ccdc_geom_bond_type 
O1            C4   1.264       .  A
O1           Cd6   2.511       .  S
C2           O11   1.262   1_556  A
C2            O7   1.270       .  A
C2           C28   1.519       .  S
O3            C9   1.265       .  A
O3           Cd6   2.416       .  S
C4           O12   1.276       .  A
C4           C51   1.499       .  S
C5           O10   1.259       .  A
C5            O8   1.275       .  A
C5          C217   1.446       .  S
Cd6          O13   2.417       .  S
Cd6          O12   2.552       .  S
Cd6          O11   2.371       .  S
Cd6           O7   2.609   1_554  S
Cd6          O10   2.420       .  S
Cd6           O8   2.541       .  S
C9           O13   1.268       .  A
C9          C220   1.419       .  S
O14          C17   1.270       .  A
O14         Cd19   2.523       .  S
C15          O24   1.263       .  A
C15          O20   1.270       .  A
C15          C76   1.512       .  S
O16          C22   1.265       .  A
O16         Cd19   2.415       .  S
C17          O25   1.263       .  A
C17         N183   1.433       .  S
C18          O23   1.262       .  A
C18          O21   1.269       .  A
C18         C658   1.447   1_455  S
Cd19         O26   2.429       .  S
Cd19         O25   2.396       .  S
Cd19         O24   2.428       .  S
Cd19         O20   2.519       .  S
Cd19         O23   2.478       .  S
Cd19         O21   2.505       .  S
C22          O26   1.262       .  A
C22         C219   1.419       .  S
C27          C29   1.537       .  S
C27          C31   1.547       .  S
C27          C30   1.502       .  S
C27         C286   1.510       .  S
C28          C32   1.548       .  S
C28          C34   1.535       .  S
C28          C33   1.550       .  S
C29          C37   1.367       .  A
C29          C32   1.415       .  A
C30          C41   1.364       .  A
C30          C33   1.380       .  A
C31          C34   1.405       .  A
C31         C265   1.393       .  A
C32          C35   1.391       .  A
C33          C39   1.389   1_556  A
C34          C42   1.370       .  A
C35          N36   1.362       .  A
C35          H48   1.082       .  S
N36         C162   1.436       .  S
N36          C37   1.352       .  A
C37          H38   1.081       .  S
C39          N40   1.362       .  A
C39          H49   1.083       .  S
N40          C41   1.340   1_554  A
N40         C215   1.396       .  S
C41         H267   1.084       .  S
C42          N43   1.338       .  A
C42          H44   1.083       .  S
N43         C265   1.359       .  A
N43         C214   1.398   1_556  S
C45         C251   1.394       .  A
C45         N263   1.359       .  A
C45          H46   1.082   1_565  S
H47         C261   1.084       .  S
O50          C53   1.269       .  A
O50         Cd55   2.609       .  S
C51          O60   1.277       .  A
C51          O56   1.265       .  A
O52          C58   1.264       .  A
O52         Cd55   2.406   1_556  S
C53          O61   1.261       .  A
C53          C77   1.519       .  S
C54          O59   1.259       .  A
C54          O57   1.276   1_556  A
C54         C209   1.448       .  S
Cd55         O62   2.429   1_554  S
Cd55         O61   2.387       .  S
Cd55         O60   2.550       .  S
Cd55         O56   2.510       .  S
Cd55         O59   2.422   1_554  S
Cd55         O57   2.536       .  S
C58          O62   1.269       .  A
C58         C211   1.419       .  S
O63          C66   1.271       .  A
O63         Cd68   2.526       .  S
C64          O73   1.263       .  A
C64          O69   1.268       .  A
C64         N134   1.434       .  S
O65          C71   1.265       .  A
O65         Cd68   2.411       .  S
C66          O74   1.260       .  A
C66         C247   1.510   1_545  S
C67          O72   1.262       .  A
C67          O70   1.269       .  A
C67         C650   1.452       .  S
Cd68         O75   2.436       .  S
Cd68         O74   2.417       .  S
Cd68         O73   2.400       .  S
Cd68         O69   2.524       .  S
Cd68         O72   2.494       .  S
Cd68         O70   2.523       .  S
C71          O75   1.263       .  A
C71         C212   1.420       .  S
C76         C298   1.536       .  S
C76         C300   1.511       .  S
C76         C299   1.541       .  S
C77          C81   1.549       .  S
C77          C83   1.549       .  S
C77          C82   1.529       .  S
C78         C296   1.535       .  S
C78          C86   1.364       .  A
C78          C81   1.408       .  A
C79         C296   1.540       .  S
C79          C82   1.392       .  A
C79         C310   1.389   1_545  A
C80         C296   1.510       .  S
C80          C83   1.390       .  A
C80         C314   1.363       .  A
C81          C84   1.387       .  A
C82          C88   1.368       .  A
C83          C91   1.388       .  A
C84          N85   1.365       .  A
C84          H97   1.081       .  S
N85         C113   1.434       .  S
N85          C86   1.355       .  A
C86          H87   1.083       .  S
C88         N309   1.340       .  A
C88          H98   1.081       .  S
N89          C90   1.360       .  A
N89         C308   1.340       .  A
N89         C213   1.398       .  S
C90         C299   1.390       .  A
C90          H96   1.082       .  S
C91          N92   1.362       .  A
C91          H93   1.083       .  S
N92         C314   1.343       .  A
N92         C216   1.396       .  S
C94         C300   1.363       .  A
C94         N312   1.343       .  A
C94          H95   1.084       .  S
O99         C322   1.265       .  A
O99        Cd104   2.500       .  S
C100        O109   1.261       .  A
C100        O105   1.270       .  A
C100        C126   1.521       .  S
O101        C547   1.264       .  A
O101       Cd104   2.415       .  S
C102        O319   1.264       .  A
C102        O330   1.276       .  A
C102        C589   1.497       .  S
C103        O108   1.259       .  A
C103        O106   1.276       .  A
C103        C205   1.448       .  S
Cd104       O110   2.547   1_545  S
Cd104       O109   2.378       .  S
Cd104       O105   2.619       .  S
Cd104       O108   2.421       .  S
Cd104       O106   2.539       .  S
Cd104       O551   2.429       .  S
C107        O111   1.269       .  A
C107        O541   1.264       .  A
C107        C207   1.421       .  S
O110        C322   1.277   1_565  A
O111       Cd544   2.428       .  S
O112        C115   1.269       .  A
O112       Cd117   2.533       .  S
C113        O122   1.264       .  A
C113        O118   1.269       .  A
O114        C120   1.262       .  A
O114       Cd117   2.488       .  S
C115        O123   1.262       .  A
C115        C174   1.512       .  S
C116        O121   1.264       .  A
C116        O119   1.263       .  A
C116        C208   1.420       .  S
Cd117       O124   2.514       .  S
Cd117       O123   2.420       .  S
Cd117       O122   2.399       .  S
Cd117       O118   2.522       .  S
Cd117       O121   2.413       .  S
Cd117       O119   2.438       .  S
C120        O124   1.269       .  A
C120        C206   1.450       .  S
C125        C127   1.534       .  S
C125        C129   1.542       .  S
C125        C128   1.506       .  S
C125        C164   1.511       .  S
C126        C130   1.550       .  S
C126        C132   1.531       .  S
C126        C131   1.552       .  S
C127        C135   1.363       .  A
C127        C130   1.409       .  A
C128        C139   1.364       .  A
C128        C131   1.386       .  A
C129        C143   1.388       .  A
C129        C132   1.398       .  A
C130        C133   1.388       .  A
C131        C137   1.390       .  A
C132        C140   1.367       .  A
C133        N134   1.365       .  A
C133        H146   1.082       .  S
N134        C135   1.354       .  A
C135        H136   1.081       .  S
C137        N138   1.363       .  A
C137        H147   1.083       .  S
N138        C139   1.341       .  A
N138        C204   1.397       .  S
C139        H145   1.084       .  S
C140        N141   1.338       .  A
C140        H142   1.083       .  S
N141        C143   1.360       .  A
N141        C201   1.394       .  S
C143        H144   1.082       .  S
O148        C151   1.269       .  A
O148       Cd153   2.606       .  S
C149        O158   1.277       .  A
C149        O154   1.265       .  A
C149        C542   1.496   1_455  S
O150        C156   1.264       .  A
O150       Cd153   2.409       .  S
C151        O159   1.261       .  A
C151        C175   1.518       .  S
C152        O157   1.259       .  A
C152        O155   1.276       .  A
C152        C197   1.446       .  S
Cd153       O160   2.423       .  S
Cd153       O159   2.371       .  S
Cd153       O158   2.536       .  S
Cd153       O154   2.505       .  S
Cd153       O157   2.413       .  S
Cd153       O155   2.535       .  S
C156        O160   1.269       .  A
C156        C639   1.419       .  S
O161        C164   1.271       .  A
O161       Cd166   2.519       .  S
C162        O171   1.263       .  A
C162        O167   1.269       .  A
O163        C169   1.265       .  A
O163       Cd166   2.405       .  S
C164        O172   1.262       .  A
C165        O170   1.262       .  A
C165        O168   1.269       .  A
C165        C198   1.449       .  S
Cd166       O173   2.425       .  S
Cd166       O172   2.427       .  S
Cd166       O171   2.404       .  S
Cd166       O167   2.530       .  S
Cd166       O170   2.484       .  S
Cd166       O168   2.510       .  S
C169        O173   1.262       .  A
C169        C200   1.416       .  S
C174        C176   1.538       .  S
C174        C178   1.509       .  S
C174        C177   1.543       .  S
C175        C179   1.544       .  S
C175        C181   1.549       .  S
C175        C180   1.531       .  S
C176        C184   1.365       .  A
C176        C179   1.408       .  A
C177        C188   1.391       .  A
C177        C180   1.398       .  A
C178        C192   1.364       .  A
C178        C181   1.387       .  A
C179        C182   1.384       .  A
C180        C186   1.367       .  A
C181        C189   1.389       .  A
C182        N183   1.364       .  A
C182        H195   1.081       .  S
N183        C184   1.356       .  A
C184        H185   1.083       .  S
C186        N187   1.338       .  A
C186        H196   1.082       .  S
N187        C188   1.360       .  A
N187        C202   1.396       .  S
C188        H194   1.083       .  S
C189        N190   1.362       .  A
C189        H191   1.083       .  S
N190        C192   1.342       .  A
N190        C203   1.397       .  S
C192        H193   1.083       .  S
C197        C198   1.214       .  T
C199        C596   1.416       .  S
C199        C200   1.195       .  T
C201        C642   1.200       .  T
C202        C641   1.202       .  T
C203        C204   1.203       .  T
C205        C206   1.215       .  T
C207        C208   1.197   1_655  T
C209        C210   1.215       .  T
C210        C507   1.451   1_455  S
C211        C212   1.197       .  T
C213        C214   1.203       .  T
C215        C876   1.201       .  T
C216        C875   1.201   1_445  T
C217        C218   1.213       .  T
C218        C458   1.449       .  S
C219        C220   1.196       .  T
O221        C224   1.264       .  A
O221       Cd226   2.506       .  S
C222        O231   1.262   1_556  A
C222        O227   1.270       .  A
C222        C248   1.519       .  S
O223        C229   1.265       .  A
O223       Cd226   2.416       .  S
C224        O232   1.276       .  A
C224        C271   1.497       .  S
C225        O230   1.259       .  A
C225        O228   1.275       .  A
C225        C437   1.445       .  S
Cd226       O233   2.420       .  S
Cd226       O232   2.545       .  S
Cd226       O231   2.364       .  S
Cd226       O227   2.611   1_554  S
Cd226       O230   2.415       .  S
Cd226       O228   2.538       .  S
C229        O233   1.268       .  A
C229        C440   1.420       .  S
O234        C237   1.269       .  A
O234       Cd239   2.524       .  S
C235        O244   1.263       .  A
C235        O240   1.269       .  A
C235        C296   1.509   1_565  S
O236        C242   1.265       .  A
O236       Cd239   2.420       .  S
C237        O245   1.263       .  A
C237        N403   1.433       .  S
C238        O243   1.263       .  A
C238        O241   1.269       .  A
C238        C878   1.449   1_455  S
Cd239       O246   2.432       .  S
Cd239       O245   2.388       .  S
Cd239       O244   2.423       .  S
Cd239       O240   2.509       .  S
Cd239       O243   2.482       .  S
Cd239       O241   2.505       .  S
C242        O246   1.262       .  A
C242        C439   1.420       .  S
C247        C249   1.538       .  S
C247        C251   1.547       .  S
C247        C250   1.500       .  S
C248        C252   1.548       .  S
C248        C254   1.535       .  S
C248        C253   1.551       .  S
C249        C257   1.368       .  A
C249        C252   1.417       .  A
C250        C261   1.365   1_565  A
C250        C253   1.378       .  A
C251        C254   1.406       .  A
C252        C255   1.392       .  A
C253        C259   1.390   1_556  A
C254        C262   1.370       .  A
C255        N256   1.362       .  A
C255        H268   1.082       .  S
N256        C382   1.437       .  S
N256        C257   1.351       .  A
C257        H258   1.081       .  S
C259        N260   1.362       .  A
C259        H269   1.083       .  S
N260        C261   1.340   1_564  A
N260        C435   1.396       .  S
C262        N263   1.337       .  A
C262        H264   1.083       .  S
N263        C434   1.398   1_556  S
C265        H266   1.082       .  S
O270        C273   1.270       .  A
O270       Cd275   2.605       .  S
C271        O280   1.277       .  A
C271        O276   1.265       .  A
O272        C278   1.264       .  A
O272       Cd275   2.406   1_556  S
C273        O281   1.260       .  A
C273        C297   1.518       .  S
C274        O279   1.259       .  A
C274        O277   1.276   1_556  A
C274        C429   1.449       .  S
Cd275       O282   2.424   1_554  S
Cd275       O281   2.384       .  S
Cd275       O280   2.548       .  S
Cd275       O276   2.503       .  S
Cd275       O279   2.419   1_554  S
Cd275       O277   2.538       .  S
C278        O282   1.268       .  A
C278        C431   1.419       .  S
O283        C286   1.271       .  A
O283       Cd288   2.530       .  S
C284        O293   1.263       .  A
C284        O289   1.268       .  A
C284        N354   1.434       .  S
O285        C291   1.264       .  A
O285       Cd288   2.410       .  S
C286        O294   1.260       .  A
C287        O292   1.261       .  A
C287        O290   1.269       .  A
C287        C870   1.451       .  S
Cd288       O295   2.440       .  S
Cd288       O294   2.415       .  S
Cd288       O293   2.404       .  S
Cd288       O289   2.524       .  S
Cd288       O292   2.488       .  S
Cd288       O290   2.521       .  S
C291        O295   1.264       .  A
C291        C432   1.420       .  S
C297        C301   1.546       .  S
C297        C303   1.549       .  S
C297        C302   1.531       .  S
C298        C306   1.364       .  A
C298        C301   1.407       .  A
C299        C302   1.395       .  A
C300        C303   1.390       .  A
C301        C304   1.385       .  A
C302        C308   1.369       .  A
C303        C311   1.388       .  A
C304        N305   1.364       .  A
C304        H317   1.081       .  S
N305        C333   1.432       .  S
N305        C306   1.355       .  A
C306        H307   1.083       .  S
C308        H318   1.081       .  S
N309        C310   1.361   1_545  A
N309        C433   1.397   1_545  S
C310        H316   1.082       .  S
C311        N312   1.363       .  A
C311        H313   1.083       .  S
N312        C436   1.396       .  S
C314        H315   1.084   1_545  S
O319       Cd324   2.504       .  S
C320        O329   1.262       .  A
C320        O325   1.270       .  A
C320        C346   1.521       .  S
O321        C767   1.264       .  A
O321       Cd324   2.412       .  S
C322        C809   1.496   1_545  S
C323        O328   1.259       .  A
C323        O326   1.275       .  A
C323        C425   1.447       .  S
Cd324       O771   2.428       .  S
Cd324       O330   2.547       .  S
Cd324       O329   2.376       .  S
Cd324       O325   2.613       .  S
Cd324       O328   2.424       .  S
Cd324       O326   2.538       .  S
C327        O761   1.264       .  A
C327        O331   1.268       .  A
C327        C427   1.420       .  S
O331       Cd764   2.429       .  S
O332        C335   1.269       .  A
O332       Cd337   2.529       .  S
C333        O342   1.263       .  A
C333        O338   1.269       .  A
O334        C340   1.262       .  A
O334       Cd337   2.484       .  S
C335        O343   1.262       .  A
C335        C394   1.509       .  S
C336        O341   1.264       .  A
C336        O339   1.263       .  A
C336        C428   1.420       .  S
Cd337       O344   2.511       .  S
Cd337       O343   2.411       .  S
Cd337       O342   2.393       .  S
Cd337       O338   2.516       .  S
Cd337       O341   2.407       .  S
Cd337       O339   2.440       .  S
C340        O344   1.269       .  A
C340        C426   1.449       .  S
C345        C347   1.538       .  S
C345        C349   1.546       .  S
C345        C348   1.502       .  S
C345        C384   1.514       .  S
C346        C350   1.545       .  S
C346        C352   1.535       .  S
C346        C351   1.552       .  S
C347        C355   1.366       .  A
C347        C350   1.412       .  A
C348        C359   1.364       .  A
C348        C351   1.383       .  A
C349        C363   1.393       .  A
C349        C352   1.406       .  A
C350        C353   1.389       .  A
C351        C357   1.390       .  A
C352        C360   1.368       .  A
C353        N354   1.362       .  A
C353        H366   1.082       .  S
N354        C355   1.352       .  A
C355        H356   1.081       .  S
C357        N358   1.363       .  A
C357        H367   1.083       .  S
N358        C359   1.341       .  A
N358        C424   1.397       .  S
C359        H365   1.084       .  S
C360        N361   1.336       .  A
C360        H362   1.083       .  S
N361        C363   1.360       .  A
N361        C421   1.397       .  S
C363        H364   1.082       .  S
O368        C371   1.269       .  A
O368       Cd373   2.609       .  S
C369        O378   1.277       .  A
C369        O374   1.265       .  A
C369        C762   1.497   1_465  S
O370        C376   1.264       .  A
O370       Cd373   2.398       .  S
C371        O379   1.261       .  A
C371        C395   1.516       .  S
C372        O377   1.259       .  A
C372        O375   1.276       .  A
C372        C417   1.449       .  S
Cd373       O380   2.423       .  S
Cd373       O379   2.364       .  S
Cd373       O378   2.542       .  S
Cd373       O374   2.508       .  S
Cd373       O377   2.425       .  S
Cd373       O375   2.539       .  S
C376        O380   1.269       .  A
C376        C859   1.416       .  S
O381        C384   1.271       .  A
O381       Cd386   2.521       .  S
C382        O391   1.263       .  A
C382        O387   1.269       .  A
O383        C389   1.265       .  A
O383       Cd386   2.414       .  S
C384        O392   1.262       .  A
C385        O390   1.262       .  A
C385        O388   1.269       .  A
C385        C418   1.452       .  S
Cd386       O393   2.431       .  S
Cd386       O392   2.440       .  S
Cd386       O391   2.409       .  S
Cd386       O387   2.538       .  S
Cd386       O390   2.493       .  S
Cd386       O388   2.519       .  S
C389        O393   1.263       .  A
C389        C420   1.419       .  S
C394        C396   1.536       .  S
C394        C398   1.507       .  S
C394        C397   1.539       .  S
C395        C399   1.546       .  S
C395        C401   1.550       .  S
C395        C400   1.532       .  S
C396        C404   1.362       .  A
C396        C399   1.408       .  A
C397        C408   1.388       .  A
C397        C400   1.398       .  A
C398        C412   1.364       .  A
C398        C401   1.385       .  A
C399        C402   1.386       .  A
C400        C406   1.367       .  A
C401        C409   1.389       .  A
C402        N403   1.365       .  A
C402        H415   1.081       .  S
N403        C404   1.355       .  A
C404        H405   1.083       .  S
C406        N407   1.338       .  A
C406        H416   1.082       .  S
N407        C408   1.358       .  A
N407        C422   1.394       .  S
C408        H414   1.083       .  S
C409        N410   1.362       .  A
C409        H411   1.083       .  S
N410        C412   1.342       .  A
N410        C423   1.397       .  S
C412        H413   1.083       .  S
C417        C418   1.215       .  T
C419        C816   1.419       .  S
C419        C420   1.197       .  T
C421        C862   1.202       .  T
C422        C861   1.200       .  T
C423        C424   1.203       .  T
C425        C426   1.214       .  T
C427        C428   1.197   1_655  T
C429        C430   1.215       .  T
C430        C727   1.452   1_455  S
C431        C432   1.197       .  T
C433        C434   1.203       .  T
C435        C656   1.202   1_565  T
C436        C655   1.202   1_455  T
C437        C438   1.213       .  T
C438        C678   1.447       .  S
C439        C440   1.197       .  T
O441        C444   1.264       .  A
O441       Cd446   2.506       .  S
C442        O451   1.262   1_556  A
C442        O447   1.270       .  A
C442        C468   1.519       .  S
O443        C449   1.265       .  A
O443       Cd446   2.416       .  S
C444        O452   1.276       .  A
C444        C491   1.497       .  S
C445        O450   1.259       .  A
C445        O448   1.275       .  A
C445        C657   1.445       .  S
Cd446       O453   2.420       .  S
Cd446       O452   2.545       .  S
Cd446       O451   2.364       .  S
Cd446       O447   2.611   1_554  S
Cd446       O450   2.415       .  S
Cd446       O448   2.538       .  S
C449        O453   1.268       .  A
C449        C660   1.420       .  S
O454        C457   1.269       .  A
O454       Cd459   2.524       .  S
C455        O464   1.263       .  A
C455        O460   1.269       .  A
C455        C516   1.509       .  S
O456        C462   1.265       .  A
O456       Cd459   2.420       .  S
C457        O465   1.263       .  A
C457        N623   1.433       .  S
C458        O463   1.263       .  A
C458        O461   1.269       .  A
Cd459       O466   2.432       .  S
Cd459       O465   2.388       .  S
Cd459       O464   2.423       .  S
Cd459       O460   2.509       .  S
Cd459       O463   2.482       .  S
Cd459       O461   2.505       .  S
C462        O466   1.262       .  A
C462        C659   1.420       .  S
C467        C469   1.538       .  S
C467        C471   1.547       .  S
C467        C470   1.500       .  S
C467        C726   1.510       .  S
C468        C472   1.548       .  S
C468        C474   1.535       .  S
C468        C473   1.551       .  S
C469        C477   1.368       .  A
C469        C472   1.417       .  A
C470        C481   1.365       .  A
C470        C473   1.378       .  A
C471        C705   1.394       .  A
C471        C474   1.406       .  A
C472        C475   1.392       .  A
C473        C479   1.390   1_556  A
C474        C482   1.370       .  A
C475        N476   1.362       .  A
C475        H488   1.082       .  S
N476        C602   1.437       .  S
N476        C477   1.351       .  A
C477        H478   1.081       .  S
C479        N480   1.362       .  A
C479        H489   1.083       .  S
N480        C481   1.340   1_554  A
N480        C655   1.396       .  S
C481        H707   1.084       .  S
C482        N483   1.337       .  A
C482        H484   1.083       .  S
N483        C705   1.359       .  A
N483        C654   1.398   1_556  S
C485        C691   1.393       .  A
C485        N703   1.359       .  A
C485        H486   1.082   1_565  S
H487        C701   1.084       .  S
O490        C493   1.270       .  A
O490       Cd495   2.605       .  S
C491        O500   1.277       .  A
C491        O496   1.265       .  A
O492        C498   1.264       .  A
O492       Cd495   2.406   1_556  S
C493        O501   1.260       .  A
C493        C517   1.518       .  S
C494        O499   1.259       .  A
C494        O497   1.276   1_556  A
C494        C649   1.449       .  S
Cd495       O502   2.424   1_554  S
Cd495       O501   2.384       .  S
Cd495       O500   2.548       .  S
Cd495       O496   2.503       .  S
Cd495       O499   2.419   1_554  S
Cd495       O497   2.538       .  S
C498        O502   1.268       .  A
C498        C651   1.419       .  S
O503        C506   1.271       .  A
O503       Cd508   2.530       .  S
C504        O513   1.263       .  A
C504        O509   1.268       .  A
C504        N574   1.434       .  S
O505        C511   1.264       .  A
O505       Cd508   2.410       .  S
C506        O514   1.260       .  A
C506        C687   1.510   1_545  S
C507        O512   1.261       .  A
C507        O510   1.269       .  A
Cd508       O515   2.440       .  S
Cd508       O514   2.415       .  S
Cd508       O513   2.404       .  S
Cd508       O509   2.524       .  S
Cd508       O512   2.488       .  S
Cd508       O510   2.521       .  S
C511        O515   1.264       .  A
C511        C652   1.420       .  S
C516        C738   1.535       .  S
C516        C740   1.510       .  S
C516        C739   1.540       .  S
C517        C521   1.546       .  S
C517        C523   1.549       .  S
C517        C522   1.531       .  S
C518        C736   1.536       .  S
C518        C526   1.364       .  A
C518        C521   1.407       .  A
C519        C736   1.541       .  S
C519        C750   1.390   1_545  A
C519        C522   1.395       .  A
C520        C736   1.511       .  S
C520        C754   1.363       .  A
C520        C523   1.390       .  A
C521        C524   1.385       .  A
C522        C528   1.369       .  A
C523        C531   1.388       .  A
C524        N525   1.364       .  A
C524        H537   1.081       .  S
N525        C553   1.432       .  S
N525        C526   1.355       .  A
C526        H527   1.083       .  S
C528        N749   1.340       .  A
C528        H538   1.081       .  S
N529        C748   1.340       .  A
N529        C530   1.361       .  A
N529        C653   1.397       .  S
C530        C739   1.389       .  A
C530        H536   1.082       .  S
C531        N532   1.363       .  A
C531        H533   1.083       .  S
N532        C754   1.343       .  A
N532        C656   1.396       .  S
C534        C740   1.363       .  A
C534        N752   1.342       .  A
C534        H535   1.084       .  S
O539        C762   1.264       .  A
O539       Cd544   2.504       .  S
C540        O549   1.262       .  A
C540        O545   1.270       .  A
C540        C566   1.521       .  S
O541       Cd544   2.412       .  S
C542        O759   1.265       .  A
C542        O770   1.277       .  A
C543        O548   1.259       .  A
C543        O546   1.275       .  A
C543        C645   1.447       .  S
Cd544       O550   2.548   1_545  S
Cd544       O549   2.376       .  S
Cd544       O545   2.613       .  S
Cd544       O548   2.424       .  S
Cd544       O546   2.538       .  S
C547        O551   1.268       .  A
C547        C647   1.420       .  S
O550        C762   1.276   1_565  A
O552        C555   1.269       .  A
O552       Cd557   2.529       .  S
C553        O562   1.263       .  A
C553        O558   1.269       .  A
O554        C560   1.262       .  A
O554       Cd557   2.484       .  S
C555        O563   1.262       .  A
C555        C614   1.509       .  S
C556        O561   1.264       .  A
C556        O559   1.263       .  A
C556        C648   1.420       .  S
Cd557       O564   2.511       .  S
Cd557       O563   2.411       .  S
Cd557       O562   2.393       .  S
Cd557       O558   2.516       .  S
Cd557       O561   2.407       .  S
Cd557       O559   2.440       .  S
C560        O564   1.269       .  A
C560        C646   1.449       .  S
C565        C567   1.538       .  S
C565        C569   1.546       .  S
C565        C568   1.502       .  S
C565        C604   1.514       .  S
C566        C570   1.545       .  S
C566        C572   1.535       .  S
C566        C571   1.552       .  S
C567        C575   1.366       .  A
C567        C570   1.412       .  A
C568        C579   1.364       .  A
C568        C571   1.383       .  A
C569        C583   1.393       .  A
C569        C572   1.406       .  A
C570        C573   1.389       .  A
C571        C577   1.390       .  A
C572        C580   1.368       .  A
C573        N574   1.362       .  A
C573        H586   1.082       .  S
N574        C575   1.352       .  A
C575        H576   1.081       .  S
C577        N578   1.363       .  A
C577        H587   1.083       .  S
N578        C579   1.341       .  A
N578        C644   1.397       .  S
C579        H585   1.084       .  S
C580        N581   1.336       .  A
C580        H582   1.083       .  S
N581        C583   1.360       .  A
N581        C641   1.397   1_655  S
C583        H584   1.082       .  S
O588        C591   1.269       .  A
O588       Cd593   2.609       .  S
C589        O598   1.277       .  A
C589        O594   1.265       .  A
O590        C596   1.264       .  A
O590       Cd593   2.398       .  S
C591        O599   1.261       .  A
C591        C615   1.516       .  S
C592        O597   1.259       .  A
C592        O595   1.276       .  A
C592        C637   1.449       .  S
Cd593       O600   2.423       .  S
Cd593       O599   2.364       .  S
Cd593       O598   2.542       .  S
Cd593       O594   2.508       .  S
Cd593       O597   2.425       .  S
Cd593       O595   2.539       .  S
C596        O600   1.269       .  A
O601        C604   1.271       .  A
O601       Cd606   2.521       .  S
C602        O611   1.263       .  A
C602        O607   1.269       .  A
O603        C609   1.265       .  A
O603       Cd606   2.414       .  S
C604        O612   1.262       .  A
C605        O610   1.262       .  A
C605        O608   1.269       .  A
C605        C638   1.452       .  S
Cd606       O613   2.432       .  S
Cd606       O612   2.440       .  S
Cd606       O611   2.409       .  S
Cd606       O607   2.538       .  S
Cd606       O610   2.493       .  S
Cd606       O608   2.519       .  S
C609        O613   1.263       .  A
C609        C640   1.419       .  S
C614        C616   1.536       .  S
C614        C618   1.507       .  S
C614        C617   1.539       .  S
C615        C619   1.546       .  S
C615        C621   1.550       .  S
C615        C620   1.532       .  S
C616        C624   1.362       .  A
C616        C619   1.408       .  A
C617        C628   1.388       .  A
C617        C620   1.398       .  A
C618        C632   1.364       .  A
C618        C621   1.385       .  A
C619        C622   1.386       .  A
C620        C626   1.367       .  A
C621        C629   1.389       .  A
C622        N623   1.365       .  A
C622        H635   1.081       .  S
N623        C624   1.355       .  A
C624        H625   1.083       .  S
C626        N627   1.338       .  A
C626        H636   1.082       .  S
N627        C628   1.358       .  A
N627        C642   1.394       .  S
C628        H634   1.083       .  S
C629        N630   1.362       .  A
C629        H631   1.083       .  S
N630        C632   1.342       .  A
N630        C643   1.397       .  S
C632        H633   1.083       .  S
C637        C638   1.215       .  T
C639        C640   1.197   1_455  T
C643        C644   1.203       .  T
C645        C646   1.214       .  T
C647        C648   1.197       .  T
C649        C650   1.215       .  T
C651        C652   1.197       .  T
C653        C654   1.203       .  T
C657        C658   1.213       .  T
C659        C660   1.197       .  T
O661        C664   1.264       .  A
O661       Cd666   2.511       .  S
C662        O671   1.262   1_556  A
C662        O667   1.270       .  A
C662        C688   1.519       .  S
O663        C669   1.265       .  A
O663       Cd666   2.416       .  S
C664        O672   1.276       .  A
C664        C711   1.499       .  S
C665        O670   1.259       .  A
C665        O668   1.275       .  A
C665        C877   1.446       .  S
Cd666       O673   2.417       .  S
Cd666       O672   2.552       .  S
Cd666       O671   2.371       .  S
Cd666       O667   2.609   1_554  S
Cd666       O670   2.420       .  S
Cd666       O668   2.541       .  S
C669        O673   1.268       .  A
C669        C880   1.419       .  S
O674        C677   1.270       .  A
O674       Cd679   2.523       .  S
C675        O684   1.263       .  A
C675        O680   1.270       .  A
C675        C736   1.512   1_565  S
O676        C682   1.265       .  A
O676       Cd679   2.415       .  S
C677        O685   1.263       .  A
C677        N843   1.433       .  S
C678        O683   1.262       .  A
C678        O681   1.269       .  A
Cd679       O686   2.429       .  S
Cd679       O685   2.396       .  S
Cd679       O684   2.428       .  S
Cd679       O680   2.519       .  S
Cd679       O683   2.478       .  S
Cd679       O681   2.505       .  S
C682        O686   1.262       .  A
C682        C879   1.419       .  S
C687        C689   1.537       .  S
C687        C691   1.547       .  S
C687        C690   1.502       .  S
C688        C692   1.548       .  S
C688        C694   1.535       .  S
C688        C693   1.550       .  S
C689        C697   1.367       .  A
C689        C692   1.415       .  A
C690        C701   1.364   1_565  A
C690        C693   1.380       .  A
C691        C694   1.405       .  A
C692        C695   1.391       .  A
C693        C699   1.389   1_556  A
C694        C702   1.370       .  A
C695        N696   1.362       .  A
C695        H708   1.082       .  S
N696        C822   1.436       .  S
N696        C697   1.352       .  A
C697        H698   1.081       .  S
C699        N700   1.362       .  A
C699        H709   1.083       .  S
N700        C701   1.340   1_564  A
N700        C875   1.396       .  S
C702        N703   1.338       .  A
C702        H704   1.083       .  S
N703        C874   1.398   1_556  S
C705        H706   1.082       .  S
O710        C713   1.269       .  A
O710       Cd715   2.609       .  S
C711        O720   1.277       .  A
C711        O716   1.265       .  A
O712        C718   1.264       .  A
O712       Cd715   2.406   1_556  S
C713        O721   1.261       .  A
C713        C737   1.519       .  S
C714        O719   1.259       .  A
C714        O717   1.276   1_556  A
C714        C869   1.448       .  S
Cd715       O722   2.429   1_554  S
Cd715       O721   2.387       .  S
Cd715       O720   2.550       .  S
Cd715       O716   2.510       .  S
Cd715       O719   2.422   1_554  S
Cd715       O717   2.536       .  S
C718        O722   1.269       .  A
C718        C871   1.419       .  S
O723        C726   1.271       .  A
O723       Cd728   2.526       .  S
C724        O733   1.263       .  A
C724        O729   1.268       .  A
C724        N794   1.434       .  S
O725        C731   1.265       .  A
O725       Cd728   2.411       .  S
C726        O734   1.260       .  A
C727        O732   1.262       .  A
C727        O730   1.269       .  A
Cd728       O735   2.436       .  S
Cd728       O734   2.417       .  S
Cd728       O733   2.400       .  S
Cd728       O729   2.524       .  S
Cd728       O732   2.494       .  S
Cd728       O730   2.523       .  S
C731        O735   1.263       .  A
C731        C872   1.420       .  S
C737        C741   1.549       .  S
C737        C743   1.549       .  S
C737        C742   1.529       .  S
C738        C746   1.364       .  A
C738        C741   1.408       .  A
C739        C742   1.392       .  A
C740        C743   1.390       .  A
C741        C744   1.387       .  A
C742        C748   1.368       .  A
C743        C751   1.388       .  A
C744        N745   1.365       .  A
C744        H757   1.081       .  S
N745        C773   1.434       .  S
N745        C746   1.355       .  A
C746        H747   1.083       .  S
C748        H758   1.081       .  S
N749        C750   1.360   1_545  A
N749        C873   1.398   1_545  S
C750        H756   1.082       .  S
C751        N752   1.362       .  A
C751        H753   1.083       .  S
N752        C876   1.396       .  S
C754        H755   1.084   1_545  S
O759       Cd764   2.500       .  S
C760        O769   1.261       .  A
C760        O765   1.270       .  A
C760        C786   1.521       .  S
O761       Cd764   2.415       .  S
C763        O768   1.259       .  A
C763        O766   1.276       .  A
C763        C865   1.448       .  S
Cd764       O770   2.547       .  S
Cd764       O769   2.378       .  S
Cd764       O765   2.619       .  S
Cd764       O768   2.421       .  S
Cd764       O766   2.539       .  S
C767        O771   1.269       .  A
C767        C867   1.421       .  S
O772        C775   1.269       .  A
O772       Cd777   2.533       .  S
C773        O782   1.264       .  A
C773        O778   1.269       .  A
O774        C780   1.262       .  A
O774       Cd777   2.488       .  S
C775        O783   1.262       .  A
C775        C834   1.512       .  S
C776        O781   1.264       .  A
C776        O779   1.263       .  A
C776        C868   1.420       .  S
Cd777       O784   2.514       .  S
Cd777       O783   2.420       .  S
Cd777       O782   2.399       .  S
Cd777       O778   2.522       .  S
Cd777       O781   2.413       .  S
Cd777       O779   2.438       .  S
C780        O784   1.269       .  A
C780        C866   1.450       .  S
C785        C787   1.534       .  S
C785        C789   1.542       .  S
C785        C788   1.506       .  S
C785        C824   1.511       .  S
C786        C790   1.550       .  S
C786        C792   1.530       .  S
C786        C791   1.552       .  S
C787        C795   1.363       .  A
C787        C790   1.409       .  A
C788        C799   1.364       .  A
C788        C791   1.386       .  A
C789        C803   1.388       .  A
C789        C792   1.398       .  A
C790        C793   1.388       .  A
C791        C797   1.390       .  A
C792        C800   1.367       .  A
C793        N794   1.365       .  A
C793        H806   1.082       .  S
N794        C795   1.354       .  A
C795        H796   1.081       .  S
C797        N798   1.363       .  A
C797        H807   1.083       .  S
N798        C799   1.341       .  A
N798        C864   1.397       .  S
C799        H805   1.084       .  S
C800        N801   1.338       .  A
C800        H802   1.083       .  S
N801        C803   1.360       .  A
N801        C861   1.394   1_655  S
C803        H804   1.082       .  S
O808        C811   1.269       .  A
O808       Cd813   2.606       .  S
C809        O818   1.277       .  A
C809        O814   1.265       .  A
O810        C816   1.264       .  A
O810       Cd813   2.409       .  S
C811        O819   1.261       .  A
C811        C835   1.518       .  S
C812        O817   1.259       .  A
C812        O815   1.276       .  A
C812        C857   1.446       .  S
Cd813       O820   2.423       .  S
Cd813       O819   2.371       .  S
Cd813       O818   2.536       .  S
Cd813       O814   2.505       .  S
Cd813       O817   2.413       .  S
Cd813       O815   2.535       .  S
C816        O820   1.269       .  A
O821        C824   1.271       .  A
O821       Cd826   2.519       .  S
C822        O831   1.263       .  A
C822        O827   1.269       .  A
O823        C829   1.265       .  A
O823       Cd826   2.405       .  S
C824        O832   1.262       .  A
C825        O830   1.262       .  A
C825        O828   1.269       .  A
C825        C858   1.449       .  S
Cd826       O833   2.425       .  S
Cd826       O832   2.427       .  S
Cd826       O831   2.404       .  S
Cd826       O827   2.530       .  S
Cd826       O830   2.484       .  S
Cd826       O828   2.510       .  S
C829        O833   1.262       .  A
C829        C860   1.416       .  S
C834        C836   1.539       .  S
C834        C838   1.509       .  S
C834        C837   1.543       .  S
C835        C839   1.544       .  S
C835        C841   1.549       .  S
C835        C840   1.531       .  S
C836        C844   1.365       .  A
C836        C839   1.408       .  A
C837        C848   1.391       .  A
C837        C840   1.398       .  A
C838        C852   1.364       .  A
C838        C841   1.387       .  A
C839        C842   1.384       .  A
C840        C846   1.367       .  A
C841        C849   1.389       .  A
C842        N843   1.364       .  A
C842        H855   1.081       .  S
N843        C844   1.356       .  A
C844        H845   1.083       .  S
C846        N847   1.338       .  A
C846        H856   1.082       .  S
N847        C848   1.360       .  A
N847        C862   1.396       .  S
C848        H854   1.083       .  S
C849        N850   1.362       .  A
C849        H851   1.083       .  S
N850        C852   1.342       .  A
N850        C863   1.397       .  S
C852        H853   1.083       .  S
C857        C858   1.214       .  T
C859        C860   1.195   1_455  T
C863        C864   1.203       .  T
C865        C866   1.215       .  T
C867        C868   1.197       .  T
C869        C870   1.215       .  T
C871        C872   1.197       .  T
C873        C874   1.203       .  T
C877        C878   1.213       .  T
C879        C880   1.196       .  T
