geometry optimzed in LAMMPS
_audit_creation_date              2020-12-01 
_audit_creation_method            'lammps2cif' 
_symmetry_space_group_name_H-M    'P1' 
_symmetry_Int_Tables_number       1 
_symmetry_cell_setting            triclinic 
loop_ 
_symmetry_equiv_pos_as_xyz 
  x,y,z 
_cell_length_a                    65.04961468 
_cell_length_b                    65.27036348744808 
_cell_length_c                    23.785945811618873 
_cell_angle_alpha                 90.17968550635483 
_cell_angle_beta                  89.20402405122648 
_cell_angle_gamma                 89.97246457489392 
loop_ 
_atom_site_label 
_atom_site_type_symbol 
_atom_site_fract_x 
_atom_site_fract_y 
_atom_site_fract_z 
_atom_site_charge 
N1          N  0.21650007  0.78753116  0.08220027     0.00400
C2          C  0.21889236  0.79256191  0.13648457    -0.10400
C3          C  0.20326398  0.80604312  0.15288922    -0.05900
C4          C  0.19145279  0.80990503  0.10505769    -0.06600
C5          C  0.20043569  0.79823596  0.06160070    -0.10500
N6          N  0.21851688  0.79162274  0.38511204     0.00400
C7          C  0.21948544  0.79212050  0.32859610    -0.10400
C8          C  0.20815758  0.80842672  0.30880775    -0.05900
C9          C  0.19942644  0.81813928  0.35545894    -0.06600
C10         C  0.20601522  0.80718383  0.40216540    -0.10500
N11         N  0.24210875  0.74424576  0.00693865     0.00400
C12         C  0.24972714  0.74923892  0.45052214    -0.10400
C13         C  0.26850301  0.74040223  0.43645333    -0.05900
C14         C  0.27580332  0.73172623  0.48668017    -0.06600
C15         C  0.25801599  0.73355531  0.02828973    -0.10500
N16         N  0.25713791  0.75503792  0.20285427     0.00400
C17         C  0.25994476  0.75655814  0.25919572    -0.10400
C18         C  0.27427457  0.74200434  0.27713652    -0.05900
C19         C  0.28068056  0.73156470  0.22843934    -0.06600
C20         C  0.26985613  0.73995333  0.18365907    -0.10500
N21         N  0.74658668  0.79504115  0.07444597     0.00400
C22         C  0.74660481  0.79690660  0.13053629    -0.10400
C23         C  0.76031093  0.81201544  0.14728364    -0.05900
C24         C  0.77004206  0.81899743  0.09767604    -0.06600
C25         C  0.76086211  0.80809466  0.05323909    -0.10500
N26         N  0.74295881  0.79651863  0.32960393     0.00400
C27         C  0.74209664  0.79937775  0.38532694    -0.10400
C28         C  0.75646239  0.81410631  0.40001592    -0.05900
C29         C  0.76673839  0.82002775  0.35037977    -0.06600
C30         C  0.75797316  0.80837966  0.30716952    -0.10500
N31         N  0.70928167  0.75898988  0.00636631     0.00400
C32         C  0.70948340  0.75574376  0.45258141    -0.10400
C33         C  0.69632415  0.74025215  0.43345304    -0.05900
C34         C  0.68535109  0.73615684  0.97963161    -0.06600
C35         C  0.69528419  0.74510679  0.02514979    -0.10500
N36         N  0.71914745  0.75216529  0.19838959     0.00400
C37         C  0.71658955  0.75438782  0.25371756    -0.10400
C38         C  0.69969176  0.74359337  0.27340551    -0.05900
C39         C  0.69166817  0.73363447  0.22583489    -0.06600
C40         C  0.70456930  0.73923749  0.18022133    -0.10500
N41         N  0.75634373  0.25328590  0.15935328     0.00400
C42         C  0.75628736  0.25315692  0.10271167    -0.10400
C43         C  0.76834064  0.23725581  0.08129911    -0.05900
C44         C  0.77650030  0.22736868  0.12859092    -0.06600
C45         C  0.76868635  0.23783248  0.17583958    -0.10500
N46         N  0.76006921  0.26109548  0.34738760     0.00400
C47         C  0.75887937  0.26109085  0.40367673    -0.10400
C48         C  0.77208277  0.24667661  0.42538133    -0.05900
C49         C  0.78149381  0.23684032  0.37933237    -0.06600
C50         C  0.77360262  0.24637758  0.33132868    -0.10500
N51         N  0.71343953  0.28350879  0.03506152     0.00400
C52         C  0.71387119  0.28735616  0.47797127    -0.10400
C53         C  0.69999214  0.30106750  0.45446395    -0.05900
C54         C  0.68787925  0.30271176  0.99974935    -0.06600
C55         C  0.69919702  0.29810258  0.04784853    -0.10500
N56         N  0.72438171  0.29598403  0.22205512     0.00400
C57         C  0.72042037  0.29463558  0.27780143    -0.10400
C58         C  0.70413230  0.30745789  0.29374714    -0.05900
C59         C  0.69790066  0.31691357  0.24362775    -0.06600
C60         C  0.71072154  0.30922837  0.20032821    -0.10500
N61         N  0.40211547  0.38414542  0.63296553    -0.25300
N62         N  0.40408726  0.40239917  0.65603668    -0.33100
C63         C  0.42364683  0.40521909  0.67127639     0.03100
C64         C  0.43492575  0.38786056  0.65707189     0.09100
C65         C  0.42060963  0.37472334  0.63287888    -0.04000
H66         H  0.42934141  0.41947936  0.68820772     0.09800
H67         H  0.42353835  0.35982037  0.61445475     0.11000
Cu68       Cu  0.38095344  0.42392508  0.65581598     0.44200
Cu69       Cu  0.37393982  0.37547908  0.59926104     0.42000
Cu70       Cu  0.33398750  0.41682152  0.57980316     0.43900
N71         N  0.36079101  0.44731406  0.63854906    -0.32700
N72         N  0.34373343  0.44562375  0.60942934    -0.26900
C73         C  0.33589751  0.46465807  0.60209541    -0.03000
C74         C  0.34890594  0.47885926  0.62743859     0.09200
C75         C  0.36435154  0.46703807  0.65020158     0.03000
H76         H  0.32227500  0.46797880  0.57817521     0.10600
H77         H  0.37767850  0.47224780  0.67277043     0.09700
N78         N  0.32977562  0.38535232  0.56320335    -0.34100
N79         N  0.34385918  0.37101820  0.57182359    -0.26300
C80         C  0.33540800  0.35250311  0.56320008    -0.01500
C81         C  0.31521938  0.35503740  0.54754573     0.07100
C82         C  0.31210819  0.37608238  0.54792066     0.05200
H83         H  0.34323895  0.33810388  0.56989971     0.10300
H84         H  0.29772774  0.38398659  0.54122341     0.09100
N85         N  0.41385158  0.38000237  0.16120450    -0.25300
N86         N  0.41580161  0.39853730  0.13996408    -0.33100
C87         C  0.43571949  0.40286907  0.13203190     0.03100
C88         C  0.44724751  0.38625048  0.14896839     0.09100
C89         C  0.43282368  0.37182534  0.16688187    -0.04000
H90         H  0.44133193  0.41731225  0.11579196     0.09800
H91         H  0.43591586  0.35695545  0.18488510     0.11000
Cu92       Cu  0.39170643  0.41832231  0.12923894     0.44200
Cu93       Cu  0.38462100  0.36947817  0.18428498     0.42000
Cu94       Cu  0.34275004  0.41015479  0.19273237     0.43900
N95         N  0.36988836  0.44092234  0.13514108    -0.32700
N96         N  0.35188259  0.43896660  0.16076736    -0.26900
C97         C  0.34262838  0.45757748  0.16160294    -0.03000
C98         C  0.35559521  0.47175649  0.13500711     0.09200
C99         C  0.37266147  0.46036037  0.11903744     0.03000
H100        H  0.32779874  0.46062406  0.18093320     0.10600
H101        H  0.38668837  0.46581010  0.09937658     0.09700
N102        N  0.33892647  0.37853937  0.20924503    -0.34100
N103        N  0.35353350  0.36443029  0.20344397    -0.26300
C104        C  0.34511148  0.34575582  0.21022174    -0.01500
C105        C  0.32439961  0.34797494  0.22207116     0.07100
C106        C  0.32096823  0.36896438  0.22120894     0.05200
H107        H  0.35344455  0.33148312  0.20561928     0.10300
H108        H  0.30627599  0.37662030  0.22550078     0.09100
N109        N  0.34466052  0.59493072  0.99016442    -0.25300
N110        N  0.36429571  0.59165217  0.97882047    -0.33100
C111        C  0.36733761  0.57168232  0.96843897     0.03100
C112        C  0.34871701  0.56152442  0.97340286     0.09100
C113        C  0.33459351  0.57679712  0.98773511    -0.04000
H114        H  0.38221989  0.56500698  0.95895655     0.09800
H115        H  0.31826131  0.57490598  0.99508520     0.11000
Cu116      Cu  0.38624584  0.61444541  0.97866945     0.44200
Cu117      Cu  0.33433095  0.62490408  0.00563354     0.42000
Cu118      Cu  0.37385717  0.66756962  0.99698278     0.43900
N119        N  0.40810541  0.63732269  0.97897460    -0.32700
N120        N  0.40433420  0.65703392  0.98662589    -0.26900
C121        C  0.42247708  0.66724644  0.98427348    -0.03000
C122        C  0.43819270  0.65315319  0.97360494     0.09200
C123        C  0.42831292  0.63443036  0.97102130     0.03000
H124        H  0.42407365  0.68366316  0.98869304     0.10600
H125        H  0.43531281  0.61956721  0.96431064     0.09700
N126        N  0.34174126  0.67158524  0.00547206    -0.34100
N127        N  0.32821630  0.65646799  0.01111615    -0.26300
C128        C  0.30927080  0.66456770  0.01709302    -0.01500
C129        C  0.31062481  0.68566207  0.01387904     0.07100
C130        C  0.33145902  0.68961448  0.00649772     0.05200
H131        H  0.29533664  0.65565351  0.02171915     0.10300
H132        H  0.33863650  0.70449557  0.00257889     0.09100
N133        N  0.34734212  0.59415872  0.13455777    -0.25300
N134        N  0.36691782  0.59200123  0.12064237    -0.33100
C135        C  0.37133344  0.57210185  0.11355407     0.03100
C136        C  0.35371000  0.56074266  0.12354950     0.09100
C137        C  0.33869616  0.57530733  0.13702027    -0.04000
H138        H  0.38658824  0.56633874  0.10399698     0.09800
H139        H  0.32280603  0.57240134  0.14829776     0.11000
Cu140      Cu  0.38745497  0.61586847  0.11857383     0.44200
Cu141      Cu  0.33555576  0.62361811  0.15125549     0.42000
Cu142      Cu  0.37551853  0.66552501  0.17073213     0.43900
N143        N  0.40928285  0.63814238  0.12998283    -0.32700
N144        N  0.40575085  0.65659322  0.15074953    -0.26900
C145        C  0.42399829  0.66640917  0.15549051    -0.03000
C146        C  0.43960183  0.65331761  0.13649960     0.09200
C147        C  0.42944031  0.63559290  0.12103846     0.03000
H148        H  0.42577827  0.68178908  0.17177234     0.10600
H149        H  0.43611470  0.62140169  0.10597915     0.09700
N150        N  0.34347842  0.66916280  0.17801387    -0.34100
N151        N  0.32952290  0.65477959  0.16825917    -0.26300
C152        C  0.31067234  0.66334829  0.17183363    -0.01500
C153        C  0.31271158  0.68384381  0.18578545     0.07100
C154        C  0.33371393  0.68698221  0.18930121     0.05200
H155        H  0.29644908  0.65521665  0.16476333     0.10300
H156        H  0.34139565  0.70138090  0.19723871     0.09100
N157        N  0.56435932  0.38300126  0.96989765    -0.25300
N158        N  0.56140844  0.40225414  0.95543639    -0.33100
C159        C  0.54130060  0.40656319  0.95785496     0.03100
C160        C  0.53078169  0.38918558  0.97476282     0.09100
C161        C  0.54591357  0.37437246  0.98153497    -0.04000
H162        H  0.53493362  0.42153858  0.94945648     0.09800
H163        H  0.54379409  0.35894167  0.99697257     0.11000
Cu164      Cu  0.58475995  0.42288203  0.94184633     0.44200
Cu165      Cu  0.59412838  0.37191054  0.97976830     0.42000
Cu166      Cu  0.63477216  0.41325767  0.99197735     0.43900
N167        N  0.60695085  0.44518724  0.94544458    -0.32700
N168        N  0.62547400  0.44256637  0.96613301    -0.26900
C169        C  0.63504750  0.46098878  0.96715939    -0.03000
C170        C  0.62175565  0.47575402  0.94570126     0.09200
C171        C  0.60414697  0.46492417  0.93272981     0.03000
H172        H  0.65027445  0.46351679  0.98351034     0.10600
H173        H  0.58975423  0.47098490  0.91783623     0.09700
N174        N  0.63926943  0.38158332  0.00286448    -0.34100
N175        N  0.62527881  0.36708683  0.99504993    -0.26300
C176        C  0.63429227  0.34860208  0.00004864    -0.01500
C177        C  0.65481214  0.35150836  0.01228004     0.07100
C178        C  0.65735619  0.37253832  0.01431789     0.05200
H179        H  0.62639851  0.33411070  0.99555870     0.10300
H180        H  0.67153706  0.38069147  0.02172229     0.09100
N181        N  0.56981834  0.38309090  0.13786400    -0.25300
N182        N  0.56634087  0.40047363  0.11128767    -0.33100
C183        C  0.54606860  0.40339366  0.10690133     0.03100
C184        C  0.53594045  0.38710719  0.13168917     0.09100
C185        C  0.55149450  0.37430856  0.15051038    -0.04000
H186        H  0.53921213  0.41695661  0.08900351     0.09800
H187        H  0.54961207  0.36042850  0.17473614     0.11000
Cu188      Cu  0.58817432  0.42212848  0.09149942     0.44200
Cu189      Cu  0.59967576  0.37459541  0.16071643     0.42000
Cu190      Cu  0.63781347  0.41723468  0.14322969     0.43900
N191        N  0.60784795  0.44668155  0.09633789    -0.32700
N192        N  0.62640358  0.44541995  0.11754251    -0.26900
C193        C  0.63429918  0.46447502  0.12168406    -0.03000
C194        C  0.61983798  0.47839709  0.10212253     0.09200
C195        C  0.60330325  0.46634135  0.08644006     0.03000
H196        H  0.64912439  0.46791926  0.13940281     0.10600
H197        H  0.58853045  0.47135799  0.07144568     0.09700
N198        N  0.64476655  0.38727001  0.16610096    -0.34100
N199        N  0.63140843  0.37221970  0.17474897    -0.26300
C200        C  0.64185302  0.35530001  0.19016063    -0.01500
C201        C  0.66265781  0.35994028  0.19048398     0.07100
C202        C  0.66387949  0.38018799  0.17449019     0.05200
H203        H  0.63490922  0.34051089  0.19815798     0.10300
H204        H  0.67773384  0.38916649  0.16905062     0.09100
N205        N  0.62215055  0.59709258  0.98233050    -0.25300
N206        N  0.60263885  0.59356106  0.97129624    -0.33100
C207        C  0.60016857  0.57376339  0.95802697     0.03100
C208        C  0.61902942  0.56400676  0.96052406     0.09100
C209        C  0.63269274  0.57929881  0.97664108    -0.04000
H210        H  0.58550615  0.56692708  0.94816427     0.09800
H211        H  0.64903670  0.57766702  0.98306102     0.11000
Cu212      Cu  0.57982346  0.61552879  0.97450778     0.44200
Cu213      Cu  0.63195169  0.62681820  0.00197798     0.42000
Cu214      Cu  0.59061760  0.66785949  0.99845391     0.43900
N215        N  0.55715397  0.63765430  0.97736808    -0.32700
N216        N  0.56049134  0.65728463  0.98706808    -0.26900
C217        C  0.54225528  0.66729602  0.98560359    -0.03000
C218        C  0.52687580  0.65316125  0.97336417     0.09200
C219        C  0.53707108  0.63458625  0.96900018     0.03000
H220        H  0.54039100  0.68362335  0.99168267     0.10600
H221        H  0.53039024  0.61973132  0.96064484     0.09700
N222        N  0.62235655  0.67288070  0.00649134    -0.34100
N223        N  0.63666883  0.65847169  0.01068949    -0.26300
C224        C  0.65514067  0.66756518  0.01617981    -0.01500
C225        C  0.65250343  0.68855671  0.01384733     0.07100
C226        C  0.63155702  0.69138400  0.00777718     0.05200
H227        H  0.66958647  0.65944309  0.01914261     0.10300
H228        H  0.62356601  0.70585874  0.00446751     0.09100
N229        N  0.62282560  0.60025084  0.13341456    -0.25300
N230        N  0.60312013  0.59771241  0.12384894    -0.33100
C231        C  0.59921924  0.57797235  0.11348417     0.03100
C232        C  0.61743389  0.56711661  0.11642898     0.09100
C233        C  0.63222313  0.58180182  0.12946865    -0.04000
H234        H  0.58399877  0.57200912  0.10594862     0.09800
H235        H  0.64846569  0.57927620  0.13570548     0.11000
Cu236      Cu  0.58235569  0.62107941  0.12886197     0.44200
Cu237      Cu  0.63304047  0.62976938  0.15211933     0.42000
Cu238      Cu  0.59205340  0.67195853  0.17401480     0.43900
N239        N  0.55975232  0.64250249  0.13832990    -0.32700
N240        N  0.56217316  0.66150475  0.15603416    -0.26900
C241        C  0.54336023  0.67049557  0.15850177    -0.03000
C242        C  0.52871068  0.65623935  0.14101365     0.09200
C243        C  0.53993959  0.63877682  0.12905275     0.03000
H244        H  0.54055577  0.68613306  0.17173498     0.10600
H245        H  0.53422911  0.62400741  0.11580199     0.09700
N246        N  0.62426375  0.67535822  0.18011360    -0.34100
N247        N  0.63808837  0.66074608  0.17002138    -0.26300
C248        C  0.65701489  0.66885152  0.17310898    -0.01500
C249        C  0.65534432  0.68929781  0.18692186     0.07100
C250        C  0.63437393  0.69300283  0.19105060     0.05200
H251        H  0.67109310  0.66040185  0.16544327     0.10300
H252        H  0.62700168  0.70760982  0.19905107     0.09100
N253        N  0.91067077  0.16274860  0.24860157    -0.25300
N254        N  0.91267832  0.14377104  0.26652252    -0.33100
C255        C  0.93226883  0.14025756  0.28015103     0.03100
C256        C  0.94365915  0.15784957  0.27036459     0.09100
C257        C  0.92935236  0.17190921  0.25014495    -0.04000
H258        H  0.93792686  0.12546656  0.29317417     0.09800
H259        H  0.93239094  0.18739575  0.23633720     0.11000
Cu260      Cu  0.88958430  0.12233310  0.26347807     0.44200
Cu261      Cu  0.88177442  0.17270312  0.22058056     0.42000
Cu262      Cu  0.84168750  0.13154108  0.19622067     0.43900
N263        N  0.86881567  0.09950014  0.24641607    -0.32700
N264        N  0.85126572  0.10215415  0.22020906    -0.26900
C265        C  0.84254251  0.08357857  0.21230623    -0.03000
C266        C  0.85535606  0.06863590  0.23478218     0.09200
C267        C  0.87180677  0.07952153  0.25588497     0.03000
H268        H  0.82813976  0.08113790  0.19113218     0.10600
H269        H  0.88550145  0.07345684  0.27495549     0.09700
N270        N  0.83733429  0.16312756  0.18405935    -0.34100
N271        N  0.85123115  0.17745370  0.19492089    -0.26300
C272        C  0.84254222  0.19596651  0.18772481    -0.01500
C273        C  0.82249676  0.19338881  0.17037855     0.07100
C274        C  0.81967105  0.17234925  0.16861552     0.05200
H275        H  0.85018716  0.21038369  0.19563205     0.10300
H276        H  0.80550514  0.16434974  0.15977907     0.09100
N277        N  0.84782120  0.09900406  0.38575850    -0.25300
N278        N  0.86546564  0.09612184  0.41123178    -0.33100
C279        C  0.86800073  0.07615284  0.42177568     0.03100
C280        C  0.85107057  0.06549305  0.40242980     0.09100
C281        C  0.83855310  0.08059713  0.37943392    -0.04000
H282        H  0.88161326  0.06996611  0.44100270     0.09800
H283        H  0.82391739  0.07838808  0.35930294     0.11000
Cu284      Cu  0.88629913  0.11897390  0.42810768     0.44200
Cu285      Cu  0.83862404  0.12867527  0.36336621     0.42000
Cu286      Cu  0.87716999  0.17062027  0.39397692     0.43900
N287        N  0.90869966  0.14110867  0.43357284    -0.32700
N288        N  0.90612584  0.16042037  0.41909851    -0.26900
C289        C  0.92442485  0.17014912  0.42279004    -0.03000
C290        C  0.93905507  0.15615123  0.44111093     0.09200
C291        C  0.92834011  0.13795559  0.44716917     0.03000
H292        H  0.92693899  0.18606563  0.41219599     0.10600
H293        H  0.93447861  0.12313115  0.45816153     0.09700
N294        N  0.84639479  0.17497992  0.37185198    -0.34100
N295        N  0.83318447  0.16035515  0.35813087    -0.26300
C296        C  0.81500493  0.16911635  0.34596762    -0.01500
C297        C  0.81662142  0.19006511  0.35375551     0.07100
C298        C  0.83672021  0.19322527  0.37004156     0.05200
H299        H  0.80129895  0.16073670  0.33478953     0.10300
H300        H  0.84381045  0.20774663  0.38008332     0.09100
N301        N  0.84685493  0.94732447  0.19962739    -0.25300
N302        N  0.86505238  0.94806203  0.22316000    -0.33100
C303        C  0.86925682  0.96739214  0.23819358     0.03100
C304        C  0.85290017  0.97976793  0.22336625     0.09100
C305        C  0.83888558  0.96643061  0.19885266    -0.04000
H306        H  0.88372414  0.97213776  0.25586801     0.09800
H307        H  0.82425155  0.97034771  0.18072348     0.11000
Cu308      Cu  0.88465749  0.92338833  0.22436138     0.44200
Cu309      Cu  0.83592852  0.91952538  0.16876161     0.42000
Cu310      Cu  0.87305151  0.87526144  0.15712064     0.43900
N311        N  0.90656025  0.90168256  0.20510425    -0.32700
N312        N  0.90320869  0.88392579  0.17997593    -0.26900
C313        C  0.92168060  0.87483120  0.17011757    -0.03000
C314        C  0.93715299  0.88782076  0.18920412     0.09200
C315        C  0.92678466  0.90454664  0.21110680     0.03000
H316        H  0.92377540  0.86041479  0.14823391     0.10600
H317        H  0.93347853  0.91821954  0.22904155     0.09700
N318        N  0.84098097  0.87359401  0.14260572    -0.34100
N319        N  0.82825733  0.88940206  0.14814209    -0.26300
C320        C  0.80884671  0.88292916  0.14119130    -0.01500
C321        C  0.80903147  0.86222666  0.12949887     0.07100
C322        C  0.82968409  0.85671090  0.13087403     0.05200
H323        H  0.79540398  0.89257851  0.14596922     0.10300
H324        H  0.83588897  0.84138437  0.12694365     0.09100
N325        N  0.84458164  0.94411465  0.36421839    -0.25300
N326        N  0.86430924  0.94684014  0.37386664    -0.33100
C327        C  0.86781429  0.96642936  0.38730645     0.03100
C328        C  0.84943129  0.97701644  0.38616457     0.09100
C329        C  0.83490799  0.96237252  0.37082463    -0.04000
H330        H  0.88290847  0.97260419  0.39562018     0.09800
H331        H  0.81862329  0.96480082  0.36514211     0.11000
Cu332      Cu  0.88615810  0.92439430  0.36562557     0.44200
Cu333      Cu  0.83391953  0.91467271  0.34325332     0.42000
Cu334      Cu  0.87544216  0.87382560  0.32356058     0.43900
N335        N  0.90866342  0.90270780  0.35531879    -0.32700
N336        N  0.90536711  0.88352810  0.34027991    -0.26900
C337        C  0.92371585  0.87381930  0.33603214    -0.03000
C338        C  0.93906528  0.88790243  0.34829941     0.09200
C339        C  0.92883996  0.90592897  0.36037010     0.03000
H340        H  0.92578911  0.85811419  0.32244127     0.10600
H341        H  0.93561358  0.92055231  0.37099014     0.09700
N342        N  0.84372140  0.86945955  0.31568782    -0.34100
N343        N  0.82918684  0.88339895  0.32519009    -0.26300
C344        C  0.81071325  0.87407517  0.32313743    -0.01500
C345        C  0.81370177  0.85347941  0.31113695     0.07100
C346        C  0.83474929  0.85119855  0.30605234     0.05200
H347        H  0.79616012  0.88167225  0.33087711     0.10300
H348        H  0.84303151  0.83700730  0.29922474     0.09100
N349        N  0.11972336  0.94158656  0.21606784    -0.25300
N350        N  0.10038864  0.94355997  0.23241986    -0.33100
C351        C  0.09679533  0.96294032  0.24849958     0.03100
C352        C  0.11479352  0.97410909  0.24227140     0.09100
C353        C  0.12909809  0.95997046  0.22137305    -0.04000
H354        H  0.08183573  0.96855469  0.26164288     0.09800
H355        H  0.14499242  0.96287532  0.21011052     0.11000
Cu356      Cu  0.07930366  0.92027793  0.22616329     0.44200
Cu357      Cu  0.13013800  0.91317122  0.18582333     0.42000
Cu358      Cu  0.09034472  0.87200332  0.15868141     0.43900
N359        N  0.05703739  0.89918025  0.20701168    -0.32700
N360        N  0.06016040  0.88144669  0.18129793    -0.26900
C361        C  0.04154822  0.87288043  0.17136243    -0.03000
C362        C  0.02624479  0.88616988  0.19119895     0.09200
C363        C  0.03684791  0.90250221  0.21362459     0.03000
H364        H  0.03927677  0.85866046  0.14882937     0.10600
H365        H  0.03035773  0.91632009  0.23181409     0.09700
N366        N  0.12259167  0.86849986  0.14791988    -0.34100
N367        N  0.13621606  0.88302931  0.15932901    -0.26300
C368        C  0.15525854  0.87519634  0.15365974    -0.01500
C369        C  0.15394119  0.85494960  0.13701384     0.07100
C370        C  0.13294839  0.85115720  0.13373777     0.05200
H371        H  0.16919579  0.88353636  0.16282794     0.10300
H372        H  0.12574783  0.83657499  0.12505895     0.09100
N373        N  0.06068463  0.88462725  0.37273597    -0.25300
N374        N  0.05724947  0.90453744  0.37218084    -0.33100
C375        C  0.03720766  0.90803904  0.36509899     0.03100
C376        C  0.02720323  0.88943703  0.36058887     0.09100
C377        C  0.04257807  0.87478581  0.36619013    -0.04000
H378        H  0.03046652  0.92317125  0.36348583     0.09800
H379        H  0.04082760  0.85832082  0.36412361     0.11000
Cu380      Cu  0.07966392  0.92645366  0.37983442     0.44200
Cu381      Cu  0.09069777  0.87376472  0.37933080     0.42000
Cu382      Cu  0.13250744  0.91452472  0.37682250     0.43900
N383        N  0.10200087  0.94832790  0.38973306    -0.32700
N384        N  0.12193322  0.94460337  0.38748177    -0.26900
C385        C  0.13207580  0.96241340  0.39612809    -0.03000
C386        C  0.11760937  0.97785058  0.40500525     0.09200
C387        C  0.09879764  0.96822633  0.40033019     0.03000
H388        H  0.14861381  0.96390918  0.39748624     0.10600
H389        H  0.08374270  0.97519284  0.40403486     0.09700
N390        N  0.13705803  0.88272289  0.37591555    -0.34100
N391        N  0.12239377  0.86864206  0.38003476    -0.26300
C392        C  0.13119271  0.85004054  0.38332734    -0.01500
C393        C  0.15224978  0.85235507  0.37997488     0.07100
C394        C  0.15548138  0.87323604  0.37519886     0.05200
H395        H  0.12281172  0.83579128  0.38737006     0.10300
H396        H  0.17014640  0.88102852  0.37334249     0.09100
N397        N  0.06663655  0.15898016  0.25068245    -0.25300
N398        N  0.06373830  0.14094725  0.27446081    -0.33100
C399        C  0.04384137  0.13854349  0.28790794     0.03100
C400        C  0.03310487  0.15587389  0.27212086     0.09100
C401        C  0.04818008  0.16860469  0.24839630    -0.04000
H402        H  0.03765843  0.12458823  0.30566925     0.09800
H403        H  0.04584670  0.18353524  0.22997873     0.11000
Cu404      Cu  0.08580817  0.11862365  0.28200326     0.44200
Cu405      Cu  0.09639971  0.16765614  0.22260971     0.42000
Cu406      Cu  0.13589577  0.12497771  0.23092431     0.43900
N407        N  0.10577644  0.09434346  0.27426664    -0.32700
N408        N  0.12459552  0.09601297  0.25357000    -0.26900
C409        C  0.13268394  0.07699439  0.24826400    -0.03000
C410        C  0.11806870  0.06274396  0.26658833     0.09200
C411        C  0.10127568  0.07456094  0.28273843     0.03000
H412        H  0.14777328  0.07377669  0.23073063     0.10600
H413        H  0.08635240  0.06928553  0.29697410     0.09700
N414        N  0.14210442  0.15585168  0.21244993    -0.34100
N415        N  0.12841109  0.17080222  0.20711185    -0.26300
C416        C  0.13858692  0.18836178  0.19486444    -0.01500
C417        C  0.15956393  0.18433144  0.19317526     0.07100
C418        C  0.16110052  0.16366222  0.20493666     0.05200
H419        H  0.13132447  0.20315425  0.19019677     0.10300
H420        H  0.17515443  0.15490523  0.20846125     0.09100
N421        N  0.06127165  0.16006653  0.42698748    -0.25300
N422        N  0.05805917  0.14041202  0.43628744    -0.33100
C423        C  0.03800152  0.13715114  0.44577963     0.03100
C424        C  0.02772585  0.15565919  0.44257860     0.02700
C425        C  0.04299883  0.16994643  0.43002283    -0.04000
H426        H  0.03136583  0.12218544  0.45310579     0.09800
H427        H  0.04099097  0.18622487  0.42372183     0.11000
Cu428      Cu  0.08073844  0.11851034  0.43329010     0.44200
Cu429      Cu  0.09111733  0.17057015  0.41035100     0.42000
Cu430      Cu  0.13178440  0.12912144  0.39001663     0.43900
N431        N  0.10288044  0.09617469  0.42621450    -0.32700
N432        N  0.12201378  0.09932472  0.40934785    -0.26900
C433        C  0.13187023  0.08104958  0.40764760    -0.03000
C434        C  0.11810888  0.06582480  0.42472992     0.09200
C435        C  0.09993082  0.07620847  0.43566618     0.03000
H436        H  0.14770770  0.07898092  0.39436701     0.10600
H437        H  0.08523644  0.06977487  0.44790578     0.09700
N438        N  0.13634012  0.16085276  0.38241547    -0.34100
N439        N  0.12238157  0.17531785  0.39234843    -0.26300
C440        C  0.13155948  0.19378505  0.38866983    -0.01500
C441        C  0.15213572  0.19089636  0.37522832     0.07100
C442        C  0.15453471  0.16989764  0.37100462     0.05200
H443        H  0.12376701  0.20826277  0.39526666     0.10300
H444        H  0.16870635  0.16172547  0.36230260     0.09100
N445        N  0.22384941  0.24753631  0.16951452     0.00400
C446        C  0.21912633  0.25064678  0.11551810    -0.10400
C447        C  0.20176862  0.23980594  0.10002754    -0.05900
C448        C  0.19539885  0.22919174  0.14889637    -0.06600
C449        C  0.20968596  0.23446015  0.19101596    -0.10500
N450        N  0.21126635  0.25910643  0.35933091     0.00400
C451        C  0.20602363  0.26543258  0.41174372    -0.10400
C452        C  0.19020094  0.25367494  0.43361581    -0.05900
C453        C  0.18490923  0.23974543  0.39160527    -0.06600
C454        C  0.19812869  0.24366094  0.34565139    -0.10500
N455        N  0.24452170  0.29872419  0.48608151     0.00400
C456        C  0.26048441  0.27874341  0.03480589    -0.10400
C457        C  0.27244286  0.29409072  0.05753959    -0.05900
C458        C  0.27528225  0.30858028  0.01436697    -0.06600
C459        C  0.25738406  0.31350449  0.46716469    -0.10500
N460        N  0.25500818  0.29024480  0.23409595     0.00400
C461        C  0.25262456  0.29304553  0.29033335    -0.10400
C462        C  0.26641278  0.30791715  0.30927375    -0.05900
C463        C  0.27732180  0.31463960  0.26168074    -0.06600
C464        C  0.26948301  0.30382113  0.21574358    -0.10500
C465        C  0.27157077  0.31175194  0.36958728    -0.14400
C466        C  0.25775799  0.31951174  0.40660188    -0.29600
H467        H  0.28559334  0.30490215  0.38516396     0.14600
H468        H  0.24338792  0.32530466  0.39022821     0.15200
C469        C  0.27302217  0.30880313  0.15493545    -0.14400
C470        C  0.27802648  0.29389165  0.11817104    -0.29600
H471        H  0.26876591  0.32388678  0.13994106     0.14600
H472        H  0.28157404  0.27891904  0.13544877     0.15200
C473        C  0.21563313  0.28261226  0.44189103    -0.14400
C474        C  0.23576245  0.28294836  0.45187865    -0.29600
H475        H  0.20581024  0.29475717  0.45812562     0.14600
H476        H  0.24567180  0.27075644  0.43617455     0.15200
C477        C  0.22900335  0.26594480  0.32719280    -0.14400
C478        C  0.23424747  0.28585420  0.32259447    -0.29600
H479        H  0.23924171  0.25437781  0.31022793     0.14600
H480        H  0.22450087  0.29749711  0.34180204     0.15200
C481        C  0.23954744  0.25848754  0.20008154    -0.14400
C482        C  0.24075233  0.27917044  0.19932272    -0.29600
H483        H  0.25035315  0.24977843  0.22477226     0.14600
H484        H  0.23014151  0.28796269  0.17417705     0.15200
C485        C  0.20902786  0.23003613  0.25240978    -0.14400
C486        C  0.19410349  0.23753528  0.28620073    -0.29600
H487        H  0.22347704  0.22569530  0.27129774     0.14600
H488        H  0.17971857  0.24253382  0.26804135     0.15200
C489        C  0.19192350  0.24259940  0.04370971    -0.14400
C490        C  0.18325266  0.25514228  0.49333418    -0.29600
H491        H  0.18643736  0.25796256  0.03497699     0.14600
H492        H  0.17863994  0.27021857  0.50818234     0.15200
C493        C  0.25002752  0.26283762  0.06773719    -0.14400
C494        C  0.23013722  0.26533453  0.08054333    -0.29600
H495        H  0.25857321  0.24965140  0.08249842     0.14600
H496        H  0.22222973  0.27943272  0.07016679     0.15200
C497        C  0.16784698  0.22467832  0.39519957    -0.14400
C498        C  0.16854353  0.20646775  0.36852431    -0.29600
H499        H  0.15510699  0.22806566  0.42372801     0.14600
H500        H  0.18215799  0.20223956  0.34422215     0.15200
C501        C  0.17718392  0.19872892  0.18704761    -0.14400
C502        C  0.17693726  0.21575109  0.15503940    -0.29600
H503        H  0.19140821  0.19437973  0.20720579     0.14600
H504        H  0.16349709  0.21914223  0.13014215     0.15200
C505        C  0.10546054  0.01015560  0.44955370    -0.11300
C506        C  0.12049346  0.99993590  0.41734441     0.10800
C507        C  0.13664770  0.01139934  0.39329546    -0.11300
C508        C  0.13669861  0.03293125  0.39780170    -0.11300
C509        C  0.12068541  0.04316854  0.42683267     0.10800
C510        C  0.10567551  0.03136725  0.45476034    -0.11300
H511        H  0.09305947  0.00176921  0.46969068     0.14800
H512        H  0.14841948  0.00387840  0.36807811     0.14800
H513        H  0.14855529  0.04153901  0.37599168     0.14800
H514        H  0.09354981  0.03848017  0.47948970     0.14800
C515        C  0.10187432  0.00720084  0.28304027    -0.11300
C516        C  0.11709553  0.99655960  0.25227406     0.10800
C517        C  0.13371751  0.00777473  0.22965554    -0.11300
C518        C  0.13449841  0.02922501  0.23549056    -0.11300
C519        C  0.11869703  0.03988335  0.26418772     0.10800
C520        C  0.10268614  0.02843937  0.28902962    -0.11300
H521        H  0.08914408  0.99918114  0.30269613     0.14800
H522        H  0.14578362  0.00010004  0.20595418     0.14800
H523        H  0.14717037  0.03744628  0.21618267     0.14800
H524        H  0.09055208  0.03579493  0.31314827     0.14800
C525        C  0.97285871  0.90244948  0.32209071    -0.11300
C526        C  0.96164559  0.88593200  0.34404679     0.10800
C527        C  0.97227941  0.86915005  0.36645727    -0.11300
C528        C  0.99387067  0.86962162  0.36989260    -0.11300
C529        C  0.00490412  0.88685028  0.35072045     0.10800
C530        C  0.99414479  0.90286883  0.32513683    -0.11300
H531        H  0.96506992  0.91539922  0.30357157     0.14800
H532        H  0.96387991  0.85632155  0.38413200     0.14800
H533        H  0.00178105  0.85710294  0.39008026     0.14800
H534        H  0.00212011  0.91609878  0.30840867     0.14800
C535        C  0.97142275  0.90419690  0.17591534    -0.11300
C536        C  0.95991915  0.88619936  0.18361391     0.10800
C537        C  0.97048902  0.86751828  0.18953840    -0.11300
C538        C  0.99218963  0.86711313  0.19008717    -0.11300
C539        C  0.00352851  0.88538704  0.18474313     0.10800
C540        C  0.99282632  0.90380008  0.17651741    -0.11300
H541        H  0.97038619  0.91408287  0.46224365     0.14800
H542        H  0.96200478  0.85343922  0.19594797     0.14800
H543        H  0.00004326  0.85272610  0.19686103     0.14800
H544        H  0.00725893  0.91565560  0.46899957     0.14800
C545        C  0.86227135  0.03065393  0.43355246    -0.11300
C546        C  0.84830061  0.04278293  0.40374051     0.10800
C547        C  0.83273317  0.03281573  0.37337841    -0.11300
C548        C  0.83212822  0.01126129  0.37002769    -0.11300
C549        C  0.84718223  0.99938761  0.39658398     0.10800
C550        C  0.86177805  0.00937847  0.42978345    -0.11300
H551        H  0.87406714  0.03747170  0.45910797     0.14800
H552        H  0.82163430  0.04160400  0.35009970     0.14800
H553        H  0.82070098  0.00399366  0.34402239     0.14800
H554        H  0.87325999  0.00074221  0.45215693     0.14800
C555        C  0.97240946  0.14389018  0.47900867    -0.11300
C556        C  0.96161368  0.15862097  0.44821755     0.10800
C557        C  0.97283961  0.17430004  0.42127243    -0.11300
C558        C  0.99448964  0.17419840  0.42170187    -0.11300
C559        C  0.00514048  0.15839961  0.44898731     0.10800
C560        C  0.99379183  0.14377334  0.47935050    -0.11300
H561        H  0.96438288  0.13198828  0.50197296     0.14800
H562        H  0.96499676  0.18590347  0.39723887     0.14800
H563        H  0.00283182  0.18570279  0.39795499     0.14800
H564        H  0.00143738  0.13179906  0.50250176     0.14800
C565        C  0.83909047  0.03587889  0.19931512    -0.11300
C566        C  0.85330342  0.04590183  0.23396980     0.10800
C567        C  0.86638229  0.03389161  0.26698207    -0.11300
C568        C  0.86580006  0.01257801  0.26422754    -0.11300
C569        C  0.85207393  0.00247919  0.22852266     0.10800
C570        C  0.83846521  0.01436295  0.19666523    -0.11300
H571        H  0.82881863  0.04460904  0.17318280     0.14800
H572        H  0.87714779  0.04085791  0.29548660     0.14800
H573        H  0.87614658  0.00405195  0.29062075     0.14800
H574        H  0.82774295  0.00709702  0.16851919     0.14800
C575        C  0.97706834  0.14486433  0.30702662    -0.11300
C576        C  0.96647792  0.15951949  0.27540825     0.10800
C577        C  0.97807435  0.17449868  0.24659636    -0.11300
C578        C  0.99976649  0.17395785  0.24682933    -0.11300
C579        C  0.01025173  0.15846681  0.27602259     0.10800
C580        C  0.99848683  0.14436676  0.30741140    -0.11300
H581        H  0.96883727  0.13352191  0.33157293     0.14800
H582        H  0.97044652  0.18611948  0.22212884     0.14800
H583        H  0.00825668  0.18521378  0.22262140     0.14800
H584        H  0.00571505  0.13264649  0.33234986     0.14800
C585        C  0.63677324  0.51211597  0.12735793    -0.11300
C586        C  0.62051876  0.50121004  0.10261965     0.10800
C587        C  0.60430071  0.51238461  0.07918829    -0.11300
C588        C  0.60379500  0.53365939  0.08251624    -0.11300
C589        C  0.61950731  0.54458558  0.10921793     0.10800
C590        C  0.63629035  0.53363146  0.13051601    -0.11300
H591        H  0.64964509  0.50408467  0.14533103     0.14800
H592        H  0.59180074  0.50483335  0.05807246     0.14800
H593        H  0.59097019  0.54149827  0.06372790     0.14800
H594        H  0.64870981  0.54159960  0.15104250     0.14800
C595        C  0.60956675  0.50980627  0.91178042    -0.11300
C596        C  0.62396704  0.49847223  0.94240406     0.10800
C597        C  0.63902322  0.50924753  0.97254832    -0.11300
C598        C  0.63841071  0.53080564  0.97593964    -0.11300
C599        C  0.62264482  0.54182518  0.94959765     0.10800
C600        C  0.60883743  0.53108180  0.91562075    -0.11300
H601        H  0.59829644  0.50228220  0.88586351     0.14800
H602        H  0.65050518  0.50104450  0.99608070     0.14800
H603        H  0.64941030  0.53869008  0.00200792     0.14800
H604        H  0.59699514  0.53908690  0.89288787     0.14800
C605        C  0.49564418  0.64308688  0.10405957    -0.11300
C606        C  0.50593646  0.65773969  0.13658576     0.10800
C607        C  0.49412287  0.67241058  0.16617677    -0.11300
C608        C  0.47243673  0.67162881  0.16522615    -0.11300
C609        C  0.46233518  0.65617466  0.13463807     0.10800
C610        C  0.47434020  0.64231634  0.10311204    -0.11300
H611        H  0.50399038  0.63202507  0.07866807     0.14800
H612        H  0.50157661  0.68396265  0.19149094     0.14800
H613        H  0.46365329  0.68263597  0.18976171     0.14800
H614        H  0.46738641  0.63072051  0.07702070     0.14800
C615        C  0.47156827  0.67190759  0.99364795    -0.11300
C616        C  0.46075955  0.65619838  0.96610757     0.10800
C617        C  0.47200313  0.64174634  0.93444678    -0.11300
C618        C  0.49340432  0.64171323  0.93444796    -0.11300
C619        C  0.50435110  0.65614171  0.96608869     0.10800
C620        C  0.49327255  0.67188955  0.99359799    -0.11300
H621        H  0.46202008  0.68781604  0.56342031     0.14800
H622        H  0.46424126  0.62993128  0.91078427     0.14800
H623        H  0.50136526  0.62987941  0.91074880     0.14800
H624        H  0.49956062  0.68649490  0.54774628     0.14800
C625        C  0.30919290  0.33109658  0.22566933    -0.14400
C626        C  0.29258053  0.33162179  0.25996068    -0.29600
H627        H  0.31230880  0.31737633  0.20099846     0.14600
H628        H  0.29049629  0.34440318  0.28885592     0.15200
C629        C  0.48101131  0.40399256  0.15332642    -0.11300
C630        C  0.47004073  0.38551864  0.15021635     0.10800
C631        C  0.48108557  0.36702676  0.14565034    -0.11300
C632        C  0.50270528  0.36723226  0.14153374    -0.11300
C633        C  0.51343978  0.38592978  0.14174809     0.10800
C634        C  0.50233923  0.40419692  0.14900569    -0.11300
H635        H  0.47311736  0.41848785  0.15849018     0.14800
H636        H  0.47301683  0.35255953  0.14319314     0.14800
H637        H  0.51093792  0.35293355  0.13600357     0.14800
H638        H  0.51014721  0.41882210  0.15084689     0.14800
C639        C  0.36764595  0.50528655  0.09508278    -0.11300
C640        C  0.35337553  0.49443186  0.12856352     0.10800
C641        C  0.33793218  0.50564937  0.15713850    -0.11300
C642        C  0.33741975  0.52720402  0.15416285    -0.11300
C643        C  0.35244053  0.53794125  0.12295093     0.10800
C644        C  0.36726343  0.52662244  0.09264448    -0.11300
H645        H  0.37936103  0.49741282  0.07065566     0.14800
H646        H  0.32660846  0.49786777  0.18305030     0.14800
H647        H  0.32574812  0.53545923  0.17787202     0.14800
H648        H  0.37868568  0.53425068  0.06662950     0.14800
C649        C  0.30000040  0.33827374  0.54277162    -0.14400
C650        C  0.28283242  0.33926402  0.51198751    -0.29600
H651        H  0.30348096  0.32414690  0.56468088     0.14600
H652        H  0.28009279  0.35237396  0.48512007     0.15200
C653        C  0.47588263  0.36937267  0.98748508    -0.11300
C654        C  0.45771444  0.38560018  0.66029308     0.10800
C655        C  0.46934493  0.40050275  0.68840850    -0.11300
C656        C  0.49077516  0.39991214  0.68706833    -0.11300
C657        C  0.50138439  0.38434838  0.65778118     0.10800
C658        C  0.49744737  0.36948482  0.98232824    -0.11300
H659        H  0.46761373  0.35517713  0.98125349     0.14800
H660        H  0.46200068  0.41287016  0.71139288     0.14800
H661        H  0.49897827  0.41181096  0.70913368     0.14800
H662        H  0.50542167  0.35535894  0.97225305     0.14800
C663        C  0.36624363  0.51269156  0.63982867    -0.11300
C664        C  0.34834246  0.50172333  0.62684541     0.10800
C665        C  0.33052784  0.51287953  0.61361059    -0.11300
C666        C  0.33042431  0.52802254  0.99520726    -0.11300
C667        C  0.34877203  0.54532009  0.62744612     0.10800
C668        C  0.36644701  0.53398841  0.64021502    -0.11300
H669        H  0.38044859  0.50494203  0.64928502     0.14800
H670        H  0.31644451  0.50494809  0.60345659     0.14800
H671        H  0.31938913  0.53599326  0.02184165     0.14800
H672        H  0.38076868  0.54140460  0.65025838     0.14800
C673        C  0.68018153  0.33102191  0.23739701    -0.14400
C674        C  0.68035374  0.34617993  0.19931082    -0.29600
H675        H  0.66697770  0.32916366  0.26537214     0.14600
H676        H  0.69433290  0.34932072  0.17540913     0.15200
C677        C  0.67068057  0.31750362  0.99478834    -0.14400
C678        C  0.67099309  0.33589243  0.02053592    -0.29600
H679        H  0.67556693  0.33847119  0.46882546     0.14600
H680        H  0.68425638  0.34024766  0.04506861     0.15200
C681        C  0.69936850  0.31367704  0.35378152    -0.14400
C682        C  0.69422449  0.29968709  0.39346622    -0.29600
H683        H  0.70381025  0.32898045  0.36683703     0.14600
H684        H  0.69035704  0.28441092  0.37883483     0.15200
C685        C  0.69468587  0.30503805  0.10665274    -0.14400
C686        C  0.70985311  0.31261874  0.13844505    -0.29600
H687        H  0.68011088  0.30070256  0.12594567     0.14600
H688        H  0.72440365  0.31604631  0.11757296     0.15200
C689        C  0.79856897  0.22183020  0.38235093    -0.14400
C690        C  0.80000919  0.20544293  0.34806554    -0.29600
H691        H  0.80937778  0.22349305  0.41645510     0.14600
H692        H  0.78799594  0.20248408  0.31785298     0.15200
C693        C  0.74649898  0.27596576  0.43617811    -0.14400
C694        C  0.72648597  0.27253027  0.44606772    -0.29600
H695        H  0.75372113  0.29001237  0.45053298     0.14600
H696        H  0.71935093  0.25839163  0.43211279     0.15200
C697        C  0.75114785  0.27659553  0.31271961    -0.14400
C698        C  0.73082357  0.28012923  0.31496833    -0.29600
H699        H  0.76106984  0.28520067  0.28431833     0.14600
H700        H  0.72109395  0.27059932  0.34093396     0.15200
C701        C  0.79099777  0.20969960  0.12980262    -0.14400
C702        C  0.80716353  0.21005627  0.16477817    -0.29600
H703        H  0.78906770  0.19707905  0.10050255     0.14600
H704        H  0.80993878  0.22381836  0.18931375     0.15200
C705        C  0.74228822  0.26454297  0.19501168    -0.14400
C706        C  0.73977721  0.28489847  0.18986478    -0.29600
H707        H  0.73311800  0.25604988  0.22543236     0.14600
H708        H  0.74876699  0.29310751  0.15840752     0.15200
C709        C  0.77064824  0.23191409  0.23592515    -0.14400
C710        C  0.78061084  0.24420863  0.27194251    -0.29600
H711        H  0.76023897  0.22027618  0.25214233     0.14600
H712        H  0.78974197  0.25671010  0.25487570     0.15200
C713        C  0.76524758  0.22916347  0.02323003    -0.14400
C714        C  0.77649127  0.24529865  0.48606896    -0.29600
H715        H  0.74986492  0.22361137  0.01447247     0.14600
H716        H  0.78140898  0.25935053  0.50645348     0.15200
C717        C  0.72445592  0.27110258  0.07446156    -0.14400
C718        C  0.74471671  0.26776825  0.06806933    -0.29600
H719        H  0.71582080  0.26348408  0.10780098     0.14600
H720        H  0.75338539  0.27601672  0.03635980     0.15200
C721        C  0.67322439  0.72024129  0.22388867    -0.14400
C722        C  0.67281483  0.70371872  0.18999958    -0.29600
H723        H  0.66047410  0.72324844  0.25271099     0.14600
H724        H  0.68652469  0.69964338  0.16592208     0.15200
C725        C  0.66866412  0.72064457  0.98094865    -0.14400
C726        C  0.66887047  0.70431176  0.01528563    -0.29600
H727        H  0.65660055  0.72197832  0.95004469     0.14600
H728        H  0.68203493  0.70164425  0.04189171     0.15200
C729        C  0.69468552  0.73307401  0.37371384    -0.14400
C730        C  0.69136357  0.74645004  0.33167304    -0.29600
H731        H  0.69896390  0.71736971  0.36390210     0.14600
H732        H  0.68774009  0.76216742  0.34333809     0.15200
C733        C  0.69005914  0.74225142  0.08556780    -0.14400
C734        C  0.70352923  0.73346153  0.12005389    -0.29600
H735        H  0.67694535  0.75054946  0.10289280     0.14600
H736        H  0.71727465  0.72656333  0.10166985     0.15200
C737        C  0.78239015  0.83655770  0.34691357    -0.14400
C738        C  0.79818660  0.83685486  0.30991902    -0.29600
H739        H  0.78137325  0.84857076  0.37857281     0.14600
H740        H  0.80079565  0.82395903  0.28179737     0.15200
C741        C  0.72753317  0.78813917  0.42328911    -0.14400
C742        C  0.72408940  0.76775207  0.41733697    -0.29600
H743        H  0.71952228  0.79677961  0.45588953     0.14600
H744        H  0.73327733  0.75887809  0.38818008     0.15200
C745        C  0.72794531  0.78530632  0.29932400    -0.14400
C746        C  0.73132550  0.76579611  0.28679037    -0.29600
H747        H  0.71333916  0.79254007  0.28990506     0.14600
H748        H  0.74613521  0.75884913  0.29538103     0.15200
C749        C  0.78865814  0.83230846  0.09463233    -0.14400
C750        C  0.79043471  0.84910306  0.12720886    -0.29600
H751        H  0.80093608  0.82829859  0.06521965     0.14600
H752        H  0.77719483  0.85422108  0.15166292     0.15200
C753        C  0.73287593  0.78470150  0.16683857    -0.14400
C754        C  0.73327660  0.76404457  0.16490227    -0.29600
H755        H  0.72167469  0.79273646  0.19264037     0.14600
H756        H  0.74456147  0.75610472  0.13914982     0.15200
C757        C  0.76287823  0.81905388  0.20675282    -0.14400
C758        C  0.76508390  0.80522759  0.24798850    -0.29600
H759        H  0.75948174  0.83488215  0.21745381     0.14600
H760        H  0.76758633  0.78935631  0.23577326     0.15200
C761        C  0.76734300  0.80656211  0.99304543    -0.14400
C762        C  0.76216638  0.81877720  0.45861090    -0.29600
H763        H  0.77054618  0.79105451  0.97857165     0.14600
H764        H  0.75540374  0.83213175  0.47897204     0.15200
C765        C  0.72922498  0.78693137  0.04479511    -0.14400
C766        C  0.72653654  0.76676273  0.03709027    -0.29600
H767        H  0.71703820  0.79743324  0.03352915     0.14600
H768        H  0.73850537  0.75611833  0.04878756     0.15200
C769        C  0.29693763  0.71550862  0.22542438    -0.14400
C770        C  0.29595315  0.69923223  0.19058922    -0.29600
H771        H  0.30981414  0.71690438  0.25378210     0.14600
H772        H  0.28219745  0.69671518  0.16617796     0.15200
C773        C  0.29218601  0.71787640  0.98868950    -0.14400
C774        C  0.29293785  0.70006962  0.01714398    -0.29600
H775        H  0.30505879  0.72221153  0.96172525     0.14600
H776        H  0.27912645  0.69740622  0.54397968     0.15200
C777        C  0.27909042  0.74426022  0.38140063    -0.14400
C778        C  0.27444417  0.73322337  0.33529267    -0.29600
H779        H  0.28580094  0.75935776  0.37566583     0.14600
H780        H  0.26719383  0.71837263  0.34081826     0.15200
C781        C  0.25891990  0.72887709  0.08939801    -0.14400
C782        C  0.27386366  0.73598011  0.12261099    -0.29600
H783        H  0.24468696  0.72374827  0.10917318     0.14600
H784        H  0.28796228  0.74194062  0.10398058     0.15200
C785        C  0.18539431  0.83597863  0.35463644    -0.14400
C786        C  0.16757885  0.83576570  0.38382883    -0.29600
H787        H  0.18865741  0.84837460  0.32549997     0.14600
H788        H  0.16336279  0.82224497  0.40789719     0.15200
C789        C  0.23241717  0.78045990  0.41994961    -0.14400
C790        C  0.23604151  0.76038612  0.41266243    -0.29600
H791        H  0.24058607  0.78894784  0.45188259     0.14600
H792        H  0.22813810  0.75169492  0.38056923     0.15200
C793        C  0.22958470  0.77639833  0.29292021    -0.14400
C794        C  0.24970369  0.77192708  0.29618535    -0.29600
H795        H  0.21984670  0.76820805  0.26387189     0.14600
H796        H  0.25904855  0.77975038  0.32701837     0.15200
C797        C  0.17287745  0.82339637  0.10274001    -0.14400
C798        C  0.17166423  0.84055030  0.13452018    -0.29600
H799        H  0.16067425  0.81969002  0.07373500     0.14600
H800        H  0.18494236  0.84493968  0.15900116     0.15200
C801        C  0.23596622  0.78430824  0.17140421    -0.14400
C802        C  0.24077387  0.76416014  0.17064300    -0.29600
H803        H  0.24473709  0.79481204  0.19710544     0.14600
H804        H  0.23119282  0.75386385  0.14678455     0.15200
C805        C  0.19649820  0.80913574  0.21190644    -0.14400
C806        C  0.20966279  0.81575233  0.25048812    -0.29600
H807        H  0.18180162  0.80267312  0.22495960     0.14600
H808        H  0.22447721  0.82171112  0.23679188     0.15200
C809        C  0.20166122  0.81218132  0.46224465    -0.14400
C810        C  0.19438648  0.79639857  0.00167912    -0.29600
H811        H  0.20387046  0.82779206  0.47690214     0.14600
H812        H  0.19223199  0.78084409  0.98650685     0.15200
C813        C  0.23083648  0.77523595  0.05092743    -0.14400
C814        C  0.22697306  0.75561235  0.03842771    -0.29600
H815        H  0.24598031  0.78151210  0.04184011     0.14600
H816        H  0.21247064  0.74852301  0.05032496     0.15200
N817        N  0.21878121  0.78900993  0.58175225     0.00400
C818        C  0.21954766  0.79372601  0.63667631    -0.10400
C819        C  0.20291139  0.80632238  0.65111742    -0.05900
C820        C  0.19229247  0.80988360  0.60114798    -0.06600
C821        C  0.20264730  0.79885978  0.55927776    -0.10500
N822        N  0.21417813  0.78981128  0.88621873     0.00400
C823        C  0.21424387  0.78931479  0.82951541    -0.10400
C824        C  0.20221823  0.80501313  0.80880129    -0.05900
C825        C  0.19414253  0.81552403  0.85533837    -0.06600
C826        C  0.20181075  0.80560958  0.90287126    -0.10500
N827        N  0.24526842  0.74659455  0.50517855     0.00400
C828        C  0.24627695  0.74782435  0.95248930    -0.10400
C829        C  0.26512276  0.73950051  0.93725746    -0.05900
C830        C  0.27284977  0.73007269  0.98561969    -0.06600
C831        C  0.26080858  0.73606074  0.52831655    -0.10500
N832        N  0.25616692  0.75570405  0.70497524     0.00400
C833        C  0.25776781  0.75660505  0.76169880    -0.10400
C834        C  0.27236532  0.74246386  0.77981385    -0.05900
C835        C  0.28009348  0.73291367  0.73143268    -0.06600
C836        C  0.26979182  0.74135649  0.68596965    -0.10500
N837        N  0.75277359  0.78728221  0.57018968     0.00400
C838        C  0.75099459  0.79033228  0.62606215    -0.10400
C839        C  0.76231972  0.80742305  0.64239765    -0.05900
C840        C  0.77186004  0.81481735  0.59379596    -0.06600
C841        C  0.76577456  0.80181595  0.55011411    -0.10500
N842        N  0.74581974  0.79487376  0.82525149     0.00400
C843        C  0.74454792  0.79890794  0.88034901    -0.10400
C844        C  0.75910773  0.81365538  0.89473984    -0.05900
C845        C  0.76990947  0.81842796  0.84454725    -0.06600
C846        C  0.76107732  0.80622157  0.80244399    -0.10500
N847        N  0.70887393  0.75663599  0.50927746     0.00400
C848        C  0.70843863  0.75919314  0.94977049    -0.10400
C849        C  0.69393223  0.74491146  0.93129457    -0.05900
C850        C  0.68721662  0.73155304  0.48168653    -0.06600
C851        C  0.69515126  0.74238951  0.52748625    -0.10500
N852        N  0.72008366  0.74819866  0.69691720     0.00400
C853        C  0.71748613  0.75282708  0.75137133    -0.10400
C854        C  0.69939124  0.74462475  0.77235522    -0.05900
C855        C  0.69066730  0.73349824  0.72796321    -0.06600
C856        C  0.70414941  0.73624501  0.68159951    -0.10500
N857        N  0.74685721  0.24585128  0.65504460     0.00400
C858        C  0.74980887  0.24876647  0.59936792    -0.10400
C859        C  0.76350857  0.23405153  0.57840979    -0.05900
C860        C  0.76899395  0.22191155  0.62393679    -0.06600
C861        C  0.75867883  0.22993125  0.67080114    -0.10500
N862        N  0.75221113  0.24774512  0.84614730     0.00400
C863        C  0.75315742  0.24766986  0.90289050    -0.10400
C864        C  0.76908039  0.23483147  0.92060342    -0.05900
C865        C  0.77758248  0.22619475  0.87144502    -0.06600
C866        C  0.76667752  0.23447301  0.82665159    -0.10500
N867        N  0.71190449  0.28672538  0.53445703     0.00400
C868        C  0.71126523  0.27856134  0.98030100    -0.10400
C869        C  0.69543482  0.28984103  0.95711501    -0.05900
C870        C  0.68894432  0.30945087  0.50063477    -0.06600
C871        C  0.69688339  0.30016222  0.54934198    -0.10500
N872        N  0.71626803  0.28699556  0.72685997     0.00400
C873        C  0.71185289  0.28336658  0.78167422    -0.10400
C874        C  0.69565005  0.29604278  0.79921253    -0.05900
C875        C  0.69000718  0.30749219  0.75199403    -0.06600
C876        C  0.70316275  0.30140727  0.70780652    -0.10500
N877        N  0.40891201  0.38293731  0.00479098    -0.25300
N878        N  0.41123111  0.40162975  0.98477987    -0.33100
C879        C  0.43126583  0.40576390  0.97827739     0.03100
C880        C  0.44240825  0.38885692  0.99486638     0.09100
C881        C  0.42771708  0.37446699  0.01097993    -0.04000
H882        H  0.43725408  0.42023151  0.96320687     0.09800
H883        H  0.43050309  0.35939797  0.02807615     0.11000
Cu884      Cu  0.38736135  0.42155083  0.97154263     0.44200
Cu885      Cu  0.37949883  0.37197943  0.02393049     0.42000
Cu886      Cu  0.33554454  0.40952885  0.00457016     0.43900
N887        N  0.36435165  0.44308403  0.97076119    -0.32700
N888        N  0.34499982  0.43957645  0.98503968    -0.26900
C889        C  0.33475126  0.45766827  0.98440645    -0.03000
C890        C  0.34846643  0.47306869  0.96813177     0.09200
C891        C  0.36700803  0.46303128  0.96024031     0.03000
H892        H  0.31864417  0.45950029  0.99513480     0.10600
H893        H  0.38173448  0.46980861  0.94978401     0.09700
N894        N  0.33265402  0.37792488  0.02137866    -0.34100
N895        N  0.34814946  0.36520196  0.03087019    -0.26300
C896        C  0.34057491  0.34637849  0.04115693    -0.01500
C897        C  0.31943935  0.34696400  0.03685075     0.07100
C898        C  0.31491082  0.36720289  0.02423114     0.05200
H899        H  0.34990039  0.33298589  0.04906408     0.10300
H900        H  0.29983915  0.37367589  0.01755161     0.09100
N901        N  0.40814539  0.37923393  0.80546616    -0.25300
N902        N  0.41084823  0.39890448  0.81578740    -0.33100
C903        C  0.43080132  0.40262512  0.82421629     0.03100
C904        C  0.44161656  0.38443643  0.81909295     0.09100
C905        C  0.42669719  0.36982118  0.80667227    -0.04000
H906        H  0.43701298  0.41774844  0.83152614     0.09800
H907        H  0.42914791  0.35365177  0.79902041     0.11000
Cu908      Cu  0.38780198  0.42046464  0.81320830     0.44200
Cu909      Cu  0.37839592  0.36826261  0.79067064     0.42000
Cu910      Cu  0.33712899  0.40929998  0.77226673     0.43900
N911        N  0.36625991  0.44294162  0.79969170    -0.32700
N912        N  0.34730387  0.43958061  0.78302936    -0.26900
C913        C  0.33804180  0.45793103  0.77507890    -0.03000
C914        C  0.35210151  0.47346702  0.78700006     0.09200
C915        C  0.36968197  0.46310662  0.80286255     0.03000
H916        H  0.32250461  0.45981615  0.76034255     0.10600
H917        H  0.38420597  0.46957312  0.81539904     0.09700
N918        N  0.33251380  0.37739139  0.77187634    -0.34100
N919        N  0.34676942  0.36318663  0.78029270    -0.26300
C920        C  0.33757459  0.34469778  0.78273272    -0.01500
C921        C  0.31672237  0.34719271  0.77456669     0.07100
C922        C  0.31407652  0.36810335  0.76774486     0.05200
H923        H  0.34549075  0.33044419  0.79079598     0.10300
H924        H  0.29965074  0.37612079  0.76293510     0.09100
N925        N  0.34378595  0.60136051  0.61250598    -0.25300
N926        N  0.36218884  0.59976541  0.63449158    -0.33100
C927        C  0.36633934  0.58002700  0.64448903     0.03100
C928        C  0.34975952  0.56819046  0.62777220     0.09100
C929        C  0.33559130  0.58240021  0.60793826    -0.04000
H930        H  0.38081795  0.57484052  0.66095860     0.09800
H931        H  0.32085351  0.57916643  0.58940365     0.11000
Cu932      Cu  0.38243999  0.62393045  0.63985419     0.44200
Cu933      Cu  0.33346603  0.62997966  0.58616368     0.42000
Cu934      Cu  0.37376972  0.67127737  0.56784432     0.43900
N935        N  0.40547365  0.64466503  0.62197426    -0.32700
N936        N  0.40316866  0.66184506  0.59360571    -0.26900
C937        C  0.42206054  0.66985093  0.58329490    -0.03000
C938        C  0.43687773  0.65689777  0.60609564     0.09200
C939        C  0.42548185  0.64120702  0.63030818     0.03000
H940        H  0.42483995  0.68351544  0.55876236     0.10600
H941        H  0.43112175  0.62762451  0.65083435     0.09700
N942        N  0.34205182  0.67474399  0.55293238    -0.34100
N943        N  0.32811858  0.66018893  0.56150317    -0.26300
C944        C  0.30934508  0.66788766  0.55189506    -0.01500
C945        C  0.31129134  0.68804995  0.53550255     0.07100
C946        C  0.33225122  0.69198398  0.53663534     0.05200
H947        H  0.29516002  0.65940493  0.55714796     0.10300
H948        H  0.33973775  0.70648470  0.52844442     0.09100
N949        N  0.34212134  0.59547281  0.76721678    -0.25300
N950        N  0.35940123  0.59402955  0.79551314    -0.33100
C951        C  0.36283327  0.57438338  0.80835268     0.03100
C952        C  0.34728754  0.56244585  0.78631233     0.09100
C953        C  0.33412387  0.57644033  0.76123102    -0.04000
H954        H  0.37653319  0.56910589  0.82902298     0.09800
H955        H  0.32070711  0.57289238  0.73664032     0.11000
Cu956      Cu  0.38108338  0.61705411  0.80363277     0.44200
Cu957      Cu  0.33269848  0.62360076  0.73376704     0.42000
Cu958      Cu  0.37337869  0.66432531  0.73828239     0.43900
N959        N  0.40512823  0.63726456  0.78880580    -0.32700
N960        N  0.40263862  0.65493579  0.76303941    -0.26900
C961        C  0.42131811  0.66336523  0.75329365    -0.03000
C962        C  0.43636448  0.65015278  0.77333979     0.09200
C963        C  0.42529636  0.63385021  0.79593002     0.03000
H964        H  0.42379508  0.67738786  0.73010747     0.10600
H965        H  0.43137763  0.61998134  0.81408034     0.09700
N966        N  0.34239366  0.66914266  0.71946362    -0.34100
N967        N  0.32815316  0.65469213  0.71526487    -0.26300
C968        C  0.30996889  0.66366259  0.70418801    -0.01500
C969        C  0.31274922  0.68467173  0.70267722     0.07100
C970        C  0.33347776  0.68756964  0.71239707     0.05200
H971        H  0.29552058  0.65556708  0.70099554     0.10300
H972        H  0.34143433  0.70206971  0.71548517     0.09100
N973        N  0.55686512  0.37912726  0.62770982    -0.25300
N974        N  0.55566073  0.39825783  0.64535054    -0.33100
C975        C  0.53622596  0.40255430  0.66065419     0.03100
C976        C  0.52421995  0.38530847  0.65220757     0.09100
C977        C  0.53794166  0.37064061  0.63125788    -0.04000
H978        H  0.53108495  0.41764411  0.67334551     0.09800
H979        H  0.53433430  0.35525280  0.61759740     0.11000
Cu980      Cu  0.57942783  0.41888076  0.63689955     0.44200
Cu981      Cu  0.58469177  0.36789790  0.59511719     0.42000
Cu982      Cu  0.62518209  0.40739479  0.55766966     0.43900
N983        N  0.59944680  0.44113635  0.60868967    -0.32700
N984        N  0.61613352  0.43779364  0.57774208    -0.26900
C985        C  0.62396568  0.45623730  0.56223217    -0.03000
C986        C  0.61134146  0.47175976  0.58420125     0.09200
C987        C  0.59612638  0.46131500  0.61358575     0.03000
H988        H  0.63731112  0.45820649  0.53516864     0.10600
H989        H  0.58312163  0.46777795  0.63618585     0.09700
N990        N  0.62867071  0.37516399  0.55002701    -0.34100
N991        N  0.61442970  0.36158177  0.56495433    -0.26300
C992        C  0.62226382  0.34259218  0.55923864    -0.01500
C993        C  0.64219010  0.34394541  0.53881764     0.07100
C994        C  0.64580473  0.36485355  0.53354602     0.05200
H995        H  0.61413312  0.32870442  0.57049900     0.10300
H996        H  0.66017082  0.37205120  0.52151882     0.09100
N997        N  0.56375885  0.38202195  0.78813619    -0.25300
N998        N  0.56103883  0.40126082  0.80376777    -0.33100
C999        C  0.54122080  0.40432748  0.81733094     0.03100
C1000       C  0.53057536  0.38612912  0.81049611     0.09100
C1001       C  0.54543510  0.37225680  0.79145237    -0.04000
H1002       H  0.53495493  0.41910165  0.82912271     0.09800
H1003       H  0.54306359  0.35639149  0.78005358     0.11000
Cu1004     Cu  0.58346407  0.42355625  0.79920412     0.44200
Cu1005     Cu  0.59282882  0.37175792  0.76131238     0.42000
Cu1006     Cu  0.63029003  0.41372377  0.72592730     0.43900
N1007       N  0.60313700  0.44655522  0.77341521    -0.32700
N1008       N  0.62025428  0.44344266  0.74417023    -0.26900
C1009       C  0.62781633  0.46177860  0.72761054    -0.03000
C1010       C  0.61454240  0.47704984  0.74694622     0.09200
C1011       C  0.59923814  0.46668835  0.77617871     0.03000
H1012       H  0.64118444  0.46374929  0.70060902     0.10600
H1013       H  0.58565235  0.47317624  0.79599729     0.09700
N1014       N  0.63668967  0.38234122  0.72298832    -0.34100
N1015       N  0.62376788  0.36752797  0.73778837    -0.26300
C1016       C  0.63402360  0.34957093  0.73717838    -0.01500
C1017       C  0.65423991  0.35320258  0.72082305     0.07100
C1018       C  0.65526776  0.37406585  0.71162570     0.05200
H1019       H  0.62730729  0.33498496  0.74869015     0.10300
H1020       H  0.66884682  0.38277991  0.70037395     0.09100
N1021       N  0.61759723  0.59414507  0.54694294    -0.25300
N1022       N  0.59757186  0.59162879  0.54243309    -0.33100
C1023       C  0.59292443  0.57167170  0.54497667     0.03100
C1024       C  0.61082391  0.56051458  0.55183369     0.09100
C1025       C  0.62632690  0.57537154  0.55247180    -0.04000
H1026       H  0.57738967  0.56585190  0.54308159     0.09800
H1027       H  0.64257095  0.57275589  0.55842811     0.11000
Cu1028     Cu  0.57674618  0.61526672  0.53898073     0.44200
Cu1029     Cu  0.62965972  0.62426603  0.54653439     0.42000
Cu1030     Cu  0.58976409  0.66756424  0.54129372     0.43900
N1031       N  0.55500715  0.63788213  0.54911297    -0.32700
N1032       N  0.55903491  0.65767917  0.55105047    -0.26900
C1033       C  0.54116256  0.66778738  0.56183853    -0.03000
C1034       C  0.52536706  0.65340453  0.56744556     0.09200
C1035       C  0.53494468  0.63473085  0.55866271     0.03000
H1036       H  0.53985185  0.68420980  0.56705991     0.10600
H1037       H  0.52792953  0.61972193  0.55982223     0.09700
N1038       N  0.62201218  0.67089952  0.53329420    -0.34100
N1039       N  0.63584658  0.65602930  0.53829013    -0.26300
C1040       C  0.65480937  0.66437439  0.53443774    -0.01500
C1041       C  0.65300533  0.68522460  0.52484721     0.07100
C1042       C  0.63199639  0.68879989  0.52459026     0.05200
H1043       H  0.66898084  0.65580446  0.53769920     0.10300
H1044       H  0.62450047  0.70350012  0.52027702     0.09100
N1045       N  0.61796131  0.59796255  0.69912006    -0.25300
N1046       N  0.59837562  0.59513432  0.68811407    -0.33100
C1047       C  0.59408294  0.57508864  0.68863738     0.03100
C1048       C  0.61182471  0.56435543  0.70095864     0.09100
C1049       C  0.62682113  0.57944991  0.70692211    -0.04000
H1050       H  0.57884321  0.56897959  0.68243119     0.09800
H1051       H  0.64265011  0.57721843  0.71885172     0.11000
Cu1052     Cu  0.57744956  0.61859395  0.68412649     0.44200
Cu1053     Cu  0.62901170  0.62789918  0.70693212     0.42000
Cu1054     Cu  0.58897030  0.66996597  0.72499747     0.43900
N1055       N  0.55508258  0.63958296  0.70485890    -0.32700
N1056       N  0.55843985  0.65859810  0.72155049    -0.26900
C1057       C  0.54007798  0.66692006  0.73704339    -0.03000
C1058       C  0.52474654  0.65213358  0.73051315     0.09200
C1059       C  0.53504567  0.63516957  0.70979087     0.03000
H1060       H  0.53812953  0.68217707  0.75421399     0.10600
H1061       H  0.52854724  0.62032650  0.70024396     0.09700
N1062       N  0.62129996  0.67438366  0.71901734    -0.34100
N1063       N  0.63487439  0.65943236  0.71057408    -0.26300
C1064       C  0.65372419  0.66763309  0.70426133    -0.01500
C1065       C  0.65236980  0.68863364  0.71001908     0.07100
C1066       C  0.63156417  0.69245232  0.71944304     0.05200
H1067       H  0.66755991  0.65884521  0.69602250     0.10300
H1068       H  0.62434696  0.70729709  0.72429423     0.09100
N1069       N  0.90685071  0.15619091  0.61503238    -0.25300
N1070       N  0.91051655  0.13736412  0.59730840    -0.33100
C1071       C  0.93080610  0.13404453  0.59551065     0.03100
C1072       C  0.94065118  0.15168734  0.61270659     0.09100
C1073       C  0.92498208  0.16560033  0.62434742    -0.04000
H1074       H  0.93782338  0.11961846  0.58355023     0.09800
H1075       H  0.92659939  0.18096398  0.64090622     0.11000
Cu1076     Cu  0.88794654  0.11627979  0.58128854     0.44200
Cu1077     Cu  0.87672700  0.16578939  0.62888624     0.42000
Cu1078     Cu  0.83515071  0.12554713  0.60651563     0.43900
N1079       N  0.86623828  0.09355563  0.57744084    -0.32700
N1080       N  0.84644950  0.09605036  0.58825804    -0.26900
C1081       C  0.83737498  0.07735418  0.58814330    -0.03000
C1082       C  0.85244229  0.06257384  0.57726184     0.09200
C1083       C  0.87038666  0.07366458  0.57016527     0.03000
H1084       H  0.82132358  0.07463408  0.59795857     0.10600
H1085       H  0.88567201  0.06776021  0.56206470     0.09700
N1086       N  0.83048207  0.15678478  0.62511657    -0.34100
N1087       N  0.84510315  0.17043593  0.63533237    -0.26300
C1088       C  0.83632730  0.18861941  0.64735957    -0.01500
C1089       C  0.81530408  0.18659738  0.64348663     0.07100
C1090       C  0.81208556  0.16625404  0.62927033     0.05200
H1091       H  0.84473397  0.20252027  0.65639760     0.10300
H1092       H  0.79744842  0.15883810  0.62271028     0.09100
N1093       N  0.84591727  0.09394524  0.74361529    -0.25300
N1094       N  0.86510183  0.09225678  0.72550770    -0.33100
C1095       C  0.86945964  0.07254035  0.71514301     0.03100
C1096       C  0.85226146  0.06081393  0.72757347     0.09100
C1097       C  0.83744501  0.07500667  0.74505399    -0.04000
H1098       H  0.88443777  0.06716967  0.70142161     0.09800
H1099       H  0.82209872  0.07170157  0.76054312     0.11000
Cu1100     Cu  0.88601163  0.11590018  0.72625555     0.44200
Cu1101     Cu  0.83466902  0.12255065  0.77032847     0.42000
Cu1102     Cu  0.87464730  0.16357788  0.79346959     0.43900
N1103       N  0.90838886  0.13664009  0.74806858    -0.32700
N1104       N  0.90485569  0.15439730  0.77318594    -0.26900
C1105       C  0.92317608  0.16310650  0.78523293    -0.03000
C1106       C  0.93880460  0.14986702  0.76761310     0.09200
C1107       C  0.92869059  0.13335608  0.74426241     0.03000
H1108       H  0.92498005  0.17741947  0.80764611     0.10600
H1109       H  0.93557555  0.11961403  0.72674488     0.09700
N1110       N  0.84274547  0.16718458  0.80607854    -0.34100
N1111       N  0.82877627  0.15288430  0.79575401    -0.26300
C1112       C  0.80993140  0.16097478  0.80414497    -0.01500
C1113       C  0.81194373  0.18107281  0.82178865     0.07100
C1114       C  0.83296875  0.18453486  0.82242120     0.05200
H1115       H  0.79569498  0.15282664  0.79736198     0.10300
H1116       H  0.84057584  0.19886724  0.83160864     0.09100
N1117       N  0.84892382  0.94031021  0.55839547    -0.25300
N1118       N  0.86755242  0.94418168  0.53847052    -0.33100
C1119       C  0.87069685  0.96443771  0.53778284     0.03100
C1120       C  0.85322617  0.97415582  0.55815307     0.09100
C1121       C  0.83953823  0.95835087  0.57049948    -0.04000
H1122       H  0.88500602  0.97154598  0.52480123     0.09800
H1123       H  0.82440315  0.95981735  0.58951272     0.11000
Cu1124     Cu  0.88921146  0.92214099  0.51922938     0.44200
Cu1125     Cu  0.83946823  0.90992493  0.56999960     0.42000
Cu1126     Cu  0.88138912  0.86995596  0.54888836     0.43900
N1127       N  0.91272321  0.90102947  0.51587846    -0.32700
N1128       N  0.91062556  0.88154796  0.52930219    -0.26900
C1129       C  0.92945702  0.87271397  0.52853806    -0.03000
C1130       C  0.94397917  0.88749189  0.51339658     0.09200
C1131       C  0.93258608  0.90518250  0.50595915     0.03000
H1132       H  0.93238108  0.85688788  0.53918783     0.10600
H1133       H  0.93830656  0.92036776  0.49675541     0.09700
N1134       N  0.84990712  0.86414283  0.56071738    -0.34100
N1135       N  0.83531674  0.87805377  0.56969081    -0.26300
C1136       C  0.81702458  0.86843541  0.57406503    -0.01500
C1137       C  0.82014855  0.84759499  0.56679782     0.07100
C1138       C  0.84111051  0.84548526  0.55831761     0.05200
H1139       H  0.80243424  0.87616455  0.57988110     0.10300
H1140       H  0.84939224  0.83136120  0.55038435     0.09100
N1141       N  0.84671460  0.93831698  0.72547512    -0.25300
N1142       N  0.86478572  0.94081474  0.70047623    -0.33100
C1143       C  0.86853274  0.96083850  0.69369497     0.03100
C1144       C  0.85205737  0.97187066  0.71528607     0.09100
C1145       C  0.83830794  0.95703539  0.73468276    -0.04000
H1146       H  0.88266045  0.96690252  0.67591499     0.09800
H1147       H  0.82389970  0.95969735  0.75674890     0.11000
Cu1148     Cu  0.88545757  0.91757977  0.68437817     0.44200
Cu1149     Cu  0.83689867  0.90895749  0.75025054     0.42000
Cu1150     Cu  0.87764553  0.86775975  0.73665532     0.43900
N1151       N  0.90876246  0.89629524  0.68680315    -0.32700
N1152       N  0.90672426  0.87782697  0.70851610    -0.26900
C1153       C  0.92559700  0.86913564  0.71101216    -0.03000
C1154       C  0.94009993  0.88294424  0.68958500     0.09200
C1155       C  0.92859907  0.89990130  0.67467970     0.03000
H1156       H  0.92860156  0.85421713  0.72878728     0.10600
H1157       H  0.93425082  0.91446312  0.65949879     0.09700
N1158       N  0.84681314  0.86317893  0.76188205    -0.34100
N1159       N  0.83267379  0.87768868  0.76876339    -0.26300
C1160       C  0.81493065  0.86887811  0.78630012    -0.01500
C1161       C  0.81790148  0.84788805  0.79004886     0.07100
C1162       C  0.83818961  0.84488219  0.77371384     0.05200
H1163       H  0.80065592  0.87706014  0.79338824     0.10300
H1164       H  0.84610787  0.83034161  0.77025439     0.09100
N1165       N  0.12463030  0.94761497  0.58228439    -0.25300
N1166       N  0.10594906  0.95111483  0.56363385    -0.33100
C1167       C  0.10258537  0.97131141  0.56172674     0.03100
C1168       C  0.11997872  0.98135882  0.57988489     0.09100
C1169       C  0.13384669  0.96583208  0.59225305    -0.04000
H1170       H  0.08817280  0.97814144  0.54953209     0.09800
H1171       H  0.14899092  0.96762182  0.60986597     0.11000
Cu1172     Cu  0.08471201  0.92866981  0.54666551     0.44200
Cu1173     Cu  0.13431761  0.91751420  0.59581698     0.42000
Cu1174     Cu  0.09543077  0.87591094  0.56475380     0.43900
N1175       N  0.06263154  0.90634784  0.53823627    -0.32700
N1176       N  0.06589276  0.88660778  0.54600647    -0.26900
C1177       C  0.04783782  0.87658580  0.54008277    -0.03000
C1178       C  0.03266540  0.89084754  0.52730231     0.09200
C1179       C  0.04277744  0.90949383  0.52685813     0.03000
H1180       H  0.04591408  0.86021772  0.54455449     0.10600
H1181       H  0.03613225  0.92447830  0.52028021     0.09700
N1182       N  0.12628907  0.87121977  0.58631310    -0.34100
N1183       N  0.13945896  0.88588705  0.59996579    -0.26300
C1184       C  0.15737157  0.87720745  0.61451504    -0.01500
C1185       C  0.15571846  0.85621689  0.60873487     0.07100
C1186       C  0.13582073  0.85291908  0.59066941     0.05200
H1187       H  0.17084478  0.88564782  0.62731909     0.10300
H1188       H  0.12865607  0.83828885  0.58233667     0.09100
N1189       N  0.06214851  0.88095166  0.72474336    -0.25300
N1190       N  0.06054640  0.89914969  0.70124637    -0.33100
C1191       C  0.04107916  0.90217904  0.68532227     0.03100
C1192       C  0.02946327  0.88508204  0.69953005     0.09100
C1193       C  0.04346825  0.87186772  0.72458008    -0.04000
H1194       H  0.03567005  0.91637103  0.66747859     0.09800
H1195       H  0.04024192  0.85701728  0.74267577     0.11000
Cu1196     Cu  0.08395850  0.92052044  0.70085604     0.44200
Cu1197     Cu  0.09021885  0.87131610  0.75799208     0.42000
Cu1198     Cu  0.13033856  0.91158454  0.77860082     0.43900
N1199       N  0.10456057  0.94337663  0.72109342    -0.32700
N1200       N  0.12142179  0.94076757  0.75063204    -0.26900
C1201       C  0.12963817  0.95940634  0.76136517    -0.03000
C1202       C  0.11707755  0.97432954  0.73806234     0.09200
C1203       C  0.10147601  0.96343458  0.71274928     0.03000
H1204       H  0.14298968  0.96197239  0.78704208     0.10600
H1205       H  0.08826555  0.96965688  0.69153113     0.09700
N1206       N  0.13437696  0.88020176  0.79532417    -0.34100
N1207       N  0.12023230  0.86601047  0.78588539    -0.26300
C1208       C  0.12851382  0.84742650  0.79486777    -0.01500
C1209       C  0.14861644  0.84982653  0.81186772     0.07100
C1210       C  0.15185703  0.87083955  0.81167005     0.05200
H1211       H  0.12061423  0.83307321  0.78791093     0.10300
H1212       H  0.16621012  0.87865127  0.81934792     0.09100
N1213       N  0.06198177  0.15949168  0.63237405    -0.25300
N1214       N  0.05993846  0.14249768  0.60280012    -0.33100
C1215       C  0.03999957  0.13923091  0.59297846     0.03100
C1216       C  0.02880101  0.15504506  0.61694589     0.09100
C1217       C  0.04321264  0.16780932  0.64135155    -0.04000
H1218       H  0.03401101  0.12576825  0.57224243     0.09800
H1219       H  0.04018302  0.18122851  0.66695837     0.11000
Cu1220     Cu  0.08374183  0.12274558  0.58451629     0.44200
Cu1221     Cu  0.09055995  0.16804702  0.66208599     0.42000
Cu1222     Cu  0.13453201  0.13196285  0.62903856     0.43900
N1223       N  0.10594704  0.10034576  0.58522336    -0.32700
N1224       N  0.12491752  0.10303184  0.60274325    -0.26900
C1225       C  0.13423346  0.08453330  0.60553440    -0.03000
C1226       C  0.12015375  0.06963718  0.58965716     0.09200
C1227       C  0.10253827  0.08038037  0.57679323     0.03000
H1228       H  0.14947667  0.08199262  0.62169946     0.10600
H1229       H  0.08784108  0.07408525  0.56490538     0.09700
N1230       N  0.13711929  0.16227096  0.65657688    -0.34100
N1231       N  0.12158010  0.17427378  0.67216343    -0.26300
C1232       C  0.12893612  0.19277650  0.68635426    -0.01500
C1233       C  0.14990743  0.19268763  0.67778347     0.07100
C1234       C  0.15466646  0.17315506  0.65905281     0.05200
H1235       H  0.11948635  0.20584757  0.69762963     0.10300
H1236       H  0.16966079  0.16746146  0.64645467     0.09100
N1237       N  0.06133611  0.15660508  0.78822302    -0.25300
N1238       N  0.05907196  0.13852444  0.76399301    -0.33100
C1239       C  0.03907385  0.13470052  0.75652844     0.03100
C1240       C  0.02775098  0.15111422  0.77672792     0.02700
C1241       C  0.04241092  0.16494283  0.79613826    -0.04000
H1242       H  0.03319783  0.12063601  0.73868842     0.09800
H1243       H  0.03946772  0.17946150  0.81676571     0.11000
Cu1244     Cu  0.08244870  0.11805011  0.74786277     0.44200
Cu1245     Cu  0.09084174  0.16667015  0.81209256     0.42000
Cu1246     Cu  0.13187395  0.12531495  0.79860634     0.43900
N1247       N  0.10349813  0.09459069  0.74960814    -0.32700
N1248       N  0.12200827  0.09638049  0.77094164    -0.26900
C1249       C  0.13062398  0.07749541  0.77304069    -0.03000
C1250       C  0.11657264  0.06326089  0.75240039     0.09200
C1251       C  0.09973128  0.07492356  0.73748901     0.03000
H1252       H  0.14548465  0.07423793  0.79082619     0.10600
H1253       H  0.08530498  0.06952568  0.72099560     0.09700
N1254       N  0.13681709  0.15620962  0.82023209    -0.34100
N1255       N  0.12258493  0.17063482  0.82727252    -0.26300
C1256       C  0.13205543  0.18836866  0.84117952    -0.01500
C1257       C  0.15312295  0.18500519  0.84243279     0.07100
C1258       C  0.15548150  0.16458907  0.82813602     0.05200
H1259       H  0.12428686  0.20290998  0.84677852     0.10300
H1260       H  0.16986183  0.15643799  0.82286260     0.09100
N1261       N  0.20784118  0.26083731  0.66625959     0.00400
C1262       C  0.20478776  0.26274112  0.61058874    -0.10400
C1263       C  0.19236656  0.24674044  0.59169054    -0.05900
C1264       C  0.18839031  0.23455008  0.63904087    -0.06600
C1265       C  0.19807582  0.24384907  0.68448738    -0.10500
N1266       N  0.21172037  0.25289319  0.86261801     0.00400
C1267       C  0.21149365  0.25241143  0.91934632    -0.10400
C1268       C  0.19701182  0.23820947  0.93942599    -0.05900
C1269       C  0.18823670  0.22957162  0.89090990    -0.06600
C1270       C  0.19762781  0.23920077  0.84443056    -0.10500
N1271       N  0.25579502  0.28283836  0.98118575     0.00400
C1272       C  0.24591510  0.29784014  0.54249525    -0.10400
C1273       C  0.26020813  0.31207881  0.56123107    -0.05900
C1274       C  0.26770572  0.32220371  0.51302545    -0.06600
C1275       C  0.26485773  0.30080605  0.96740361    -0.10500
N1276       N  0.23577368  0.30162931  0.74302266     0.00400
C1277       C  0.24050529  0.29812098  0.79703704    -0.10400
C1278       C  0.25871821  0.30814803  0.81024550    -0.05900
C1279       C  0.26551368  0.31775223  0.76022575    -0.06600
C1280       C  0.25064392  0.31339497  0.71975474    -0.10500
C1281       C  0.26947932  0.30588176  0.86479736    -0.14400
C1282       C  0.26042152  0.31149271  0.91374376    -0.29600
H1283       H  0.28306769  0.29621952  0.86546698     0.14600
H1284       H  0.24642274  0.32054158  0.91267944     0.15200
C1285       C  0.24996231  0.31917986  0.65914850    -0.14400
C1286       C  0.26526692  0.31564767  0.62167448    -0.29600
H1287       H  0.23469402  0.32186006  0.64260587     0.14600
H1288       H  0.28058274  0.31202012  0.63617881     0.15200
C1289       C  0.22388919  0.26637031  0.95404126    -0.14400
C1290       C  0.24416609  0.26944351  0.94535160    -0.29600
H1291       H  0.21550575  0.27562937  0.98408308     0.14600
H1292       H  0.25232675  0.26106292  0.91241315     0.15200
C1293       C  0.22505066  0.26526147  0.82749810    -0.14400
C1294       C  0.22745658  0.28559034  0.83535802    -0.29600
H1295       H  0.23395743  0.25752174  0.79537864     0.14600
H1296       H  0.21916847  0.29338292  0.86897238     0.15200
C1297       C  0.22285396  0.27187319  0.69737562    -0.14400
C1298       C  0.21988577  0.29133594  0.71277854    -0.29600
H1299       H  0.23725449  0.26441089  0.70611954     0.14600
H1300       H  0.20602526  0.29940924  0.70175326     0.15200
C1301       C  0.20189416  0.23500020  0.74111056    -0.14400
C1302       C  0.18974273  0.23943354  0.78577401    -0.29600
H1303       H  0.21714346  0.22886453  0.74837203     0.14600
H1304       H  0.17474566  0.24626351  0.77924928     0.15200
C1305       C  0.18889796  0.24111334  0.53159385    -0.14400
C1306       C  0.19605357  0.23028442  0.99894765    -0.29600
H1307       H  0.19391025  0.22605421  0.51753188     0.14600
H1308       H  0.20238014  0.21513593  0.00629766     0.15200
C1309       C  0.23565962  0.28200113  0.57761276    -0.14400
C1310       C  0.21527057  0.27838723  0.57523260    -0.29600
H1311       H  0.24522905  0.27327263  0.60574446     0.14600
H1312       H  0.20575742  0.28781497  0.54909409     0.15200
C1313       C  0.17121670  0.21421659  0.88883606    -0.14400
C1314       C  0.16998837  0.20023258  0.84707469    -0.29600
H1315       H  0.15988430  0.21406641  0.92278155     0.14600
H1316       H  0.18249435  0.19905090  0.81649697     0.15200
C1317       C  0.16331499  0.21075583  0.68050956    -0.14400
C1318       C  0.17708973  0.21494930  0.63966808    -0.29600
H1319       H  0.15999877  0.22207151  0.71290446     0.14600
H1320       H  0.17852069  0.20483659  0.60347719     0.15200
C1321       C  0.09920311  0.00792712  0.74669146    -0.11300
C1322       C  0.11775922  0.99698246  0.74477093     0.10800
C1323       C  0.13633794  0.00794622  0.74807311    -0.11300
C1324       C  0.13621829  0.02953549  0.75132939    -0.11300
C1325       C  0.11750857  0.04042012  0.75162398     0.10800
C1326       C  0.09907153  0.02921400  0.75027256    -0.11300
H1327       H  0.08459300  0.00002198  0.74561025     0.14800
H1328       H  0.15088694  0.99988420  0.74667599     0.14800
H1329       H  0.15069328  0.03769245  0.75240902     0.14800
H1330       H  0.08431157  0.03682064  0.75203675     0.14800
C1331       C  0.10371100  0.01461938  0.60398513    -0.11300
C1332       C  0.12156088  0.00376886  0.58889199     0.10800
C1333       C  0.13988388  0.01470997  0.57899790    -0.11300
C1334       C  0.13989949  0.03628920  0.58114797    -0.11300
C1335       C  0.12159820  0.04702630  0.59325558     0.10800
C1336       C  0.10373612  0.03588216  0.60623912    -0.11300
H1337       H  0.08950482  0.00664267  0.61348816     0.14800
H1338       H  0.15385896  0.00666304  0.56720243     0.14800
H1339       H  0.15389575  0.04455375  0.57106423     0.14800
H1340       H  0.08955006  0.04361328  0.61762511     0.14800
C1341       C  0.97446019  0.89637305  0.65815331    -0.11300
C1342       C  0.96304317  0.88171847  0.68848812     0.10800
C1343       C  0.97384481  0.86699916  0.71960479    -0.11300
C1344       C  0.99546256  0.86758192  0.72215954    -0.11300
C1345       C  0.00671854  0.88290357  0.69367865     0.10800
C1346       C  0.99585829  0.89698537  0.66080522    -0.11300
H1347       H  0.96693240  0.90759709  0.63219385     0.14800
H1348       H  0.96561263  0.85543728  0.74339967     0.14800
H1349       H  0.00325675  0.85641301  0.74777635     0.14800
H1350       H  0.00381341  0.90866077  0.63682899     0.14800
C1351       C  0.97805607  0.90201047  0.48489109    -0.11300
C1352       C  0.96684570  0.88616201  0.51079838     0.10800
C1353       C  0.97778549  0.87027898  0.53696421    -0.11300
C1354       C  0.99937785  0.87109693  0.54033981    -0.11300
C1355       C  0.01029848  0.88786269  0.51787452     0.10800
C1356       C  0.99937013  0.90290747  0.48866548    -0.11300
H1357       H  0.96383644  0.91880065  0.17019763     0.14800
H1358       H  0.96965648  0.85779102  0.55719277     0.14800
H1359       H  0.00736403  0.85923286  0.56304998     0.14800
H1360       H  0.00103682  0.91810970  0.17122277     0.14800
C1361       C  0.86981561  0.02676786  0.72924493    -0.11300
C1362       C  0.85139690  0.03798877  0.72739725     0.10800
C1363       C  0.83272560  0.02713738  0.72450373    -0.11300
C1364       C  0.83266320  0.00555371  0.72178466    -0.11300
C1365       C  0.85126856  0.99454082  0.72168172     0.10800
C1366       C  0.86975149  0.00546271  0.72628736    -0.11300
H1367       H  0.88449794  0.03438582  0.73291615     0.14800
H1368       H  0.81826759  0.03531365  0.72302657     0.14800
H1369       H  0.81817225  0.99753192  0.71822685     0.14800
H1370       H  0.88435525  0.99753890  0.72764187     0.14800
C1371       C  0.97256973  0.13316376  0.78409758    -0.11300
C1372       C  0.96137744  0.15125723  0.77572725     0.10800
C1373       C  0.97212692  0.16992812  0.77203997    -0.11300
C1374       C  0.99378537  0.17024300  0.77423102    -0.11300
C1375       C  0.00490473  0.15189062  0.78021242     0.10800
C1376       C  0.99395096  0.13347543  0.78635114    -0.11300
H1377       H  0.96477630  0.11857797  0.78830143     0.14800
H1378       H  0.96387035  0.18408848  0.76522566     0.14800
H1379       H  0.00183735  0.18463784  0.76904810     0.14800
H1380       H  0.00195011  0.11911228  0.79229002     0.14800
C1381       C  0.83294100  0.02904845  0.56620636    -0.11300
C1382       C  0.85116982  0.03979397  0.57789478     0.10800
C1383       C  0.86910438  0.02849332  0.58821182    -0.11300
C1384       C  0.86927011  0.00726661  0.58375784    -0.11300
C1385       C  0.85148765  0.99648679  0.56922944     0.10800
C1386       C  0.83309106  0.00747385  0.56201486    -0.11300
H1387       H  0.81884951  0.03731344  0.55829342     0.14800
H1388       H  0.88326139  0.03600749  0.59964940     0.14800
H1389       H  0.88353506  0.99925537  0.59140886     0.14800
H1390       H  0.81914375  0.99949879  0.55078557     0.14800
C1391       C  0.97456284  0.13641065  0.63402521    -0.11300
C1392       C  0.96303581  0.15384338  0.62052025     0.10800
C1393       C  0.97327193  0.17252086  0.61120257    -0.11300
C1394       C  0.99484655  0.17336421  0.61241196    -0.11300
C1395       C  0.00624703  0.15552641  0.62278679     0.10800
C1396       C  0.99589362  0.13723426  0.63496873    -0.11300
H1397       H  0.96709428  0.12194937  0.64301422     0.14800
H1398       H  0.96468751  0.18614694  0.60052363     0.14800
H1399       H  0.00262104  0.18761131  0.60266788     0.14800
H1400       H  0.00437232  0.12339862  0.64434237     0.14800
C1401       C  0.63271889  0.51016926  0.72192831    -0.11300
C1402       C  0.61450699  0.49925683  0.73349902     0.10800
C1403       C  0.59573397  0.50982554  0.73292113    -0.11300
C1404       C  0.59507197  0.53075090  0.72218478    -0.11300
C1405       C  0.61317627  0.54191593  0.71156168     0.10800
C1406       C  0.63207567  0.53138503  0.71147952    -0.11300
H1407       H  0.64742448  0.50239534  0.72196720     0.14800
H1408       H  0.58134304  0.50191054  0.74031122     0.14800
H1409       H  0.58019469  0.53811513  0.72298309     0.14800
H1410       H  0.64629736  0.53948923  0.70308283     0.14800
C1411       C  0.59416203  0.50612352  0.58524692    -0.11300
C1412       C  0.61204076  0.49446971  0.57540534     0.10800
C1413       C  0.63002130  0.50485394  0.55800816    -0.11300
C1414       C  0.62999328  0.52636285  0.55107568    -0.11300
C1415       C  0.61190709  0.53783171  0.56062186     0.10800
C1416       C  0.59410744  0.52730209  0.57810286    -0.11300
H1417       H  0.57989428  0.49895736  0.59817233     0.14800
H1418       H  0.64410006  0.49640991  0.55023260     0.14800
H1419       H  0.64399108  0.53394827  0.53752589     0.14800
H1420       H  0.57994030  0.53540704  0.58719557     0.14800
C1421       C  0.49261196  0.63453275  0.76290670    -0.11300
C1422       C  0.50243828  0.65269665  0.74580196     0.10800
C1423       C  0.49048075  0.67049936  0.74021600    -0.11300
C1424       C  0.46903965  0.66986523  0.74963389    -0.11300
C1425       C  0.45920089  0.65149184  0.76569905     0.10800
C1426       C  0.47141922  0.63394732  0.77286661    -0.11300
H1427       H  0.50132511  0.62055607  0.76826866     0.14800
H1428       H  0.49758018  0.68468294  0.72670749     0.14800
H1429       H  0.46017764  0.68370750  0.74382396     0.14800
H1430       H  0.46464480  0.61945601  0.78483602     0.14800
C1431       C  0.47038193  0.67433720  0.57638336    -0.11300
C1432       C  0.45982958  0.65754341  0.60034115     0.10800
C1433       C  0.47148362  0.64054808  0.61729262    -0.11300
C1434       C  0.49264595  0.63981124  0.60816475    -0.11300
C1435       C  0.50315116  0.65606371  0.58210810     0.10800
C1436       C  0.49189494  0.67365568  0.56766952    -0.11300
H1437       H  0.46331894  0.68332679  0.01819439     0.14800
H1438       H  0.46438757  0.62734189  0.63661646     0.14800
H1439       H  0.50076430  0.62621593  0.62136071     0.14800
H1440       H  0.50128032  0.68331051  0.01808250     0.14800
C1441       C  0.30068712  0.33110157  0.77900894    -0.14400
C1442       C  0.28251569  0.33275847  0.75317289    -0.29600
H1443       H  0.30414504  0.31746032  0.80304401     0.14600
H1444       H  0.27999230  0.34552292  0.72488725     0.15200
C1445       C  0.47538672  0.39760598  0.85167111    -0.11300
C1446       C  0.46435685  0.38240626  0.82311008     0.10800
C1447       C  0.47543573  0.36673441  0.79538133    -0.11300
C1448       C  0.49710267  0.36721255  0.79313126    -0.11300
C1449       C  0.50796373  0.38339422  0.81844867     0.10800
C1450       C  0.49677113  0.39812342  0.84926653    -0.11300
H1451       H  0.46748749  0.40952032  0.87518702     0.14800
H1452       H  0.46739456  0.35479659  0.77292478     0.14800
H1453       H  0.50523253  0.35557475  0.76911199     0.14800
H1454       H  0.50446987  0.41042472  0.87104871     0.14800
C1455       C  0.36786392  0.50834134  0.78419975    -0.11300
C1456       C  0.35006172  0.49619567  0.78227889     0.10800
C1457       C  0.33093144  0.50613558  0.77714802    -0.11300
C1458       C  0.32974244  0.52774191  0.77691259    -0.11300
C1459       C  0.34765260  0.53966653  0.78225452     0.10800
C1460       C  0.36667078  0.52958892  0.78443981    -0.11300
H1461       H  0.38299291  0.50157396  0.78580546     0.14800
H1462       H  0.31690770  0.49727793  0.77460069     0.14800
H1463       H  0.31486241  0.53507813  0.77415429     0.14800
H1464       H  0.38090886  0.53810094  0.78613975     0.14800
C1465       C  0.30546842  0.32910301  0.04237632    -0.14400
C1466       C  0.28745765  0.32782710  0.01547574    -0.29600
H1467       H  0.31112223  0.31583540  0.06487539     0.14600
H1468       H  0.28276204  0.34028103  0.98835951     0.15200
C1469       C  0.46824272  0.36941016  0.63319516    -0.11300
C1470       C  0.46511320  0.38775180  0.99716914     0.10800
C1471       C  0.47627657  0.40586802  0.00543421    -0.11300
C1472       C  0.49759870  0.40597254  0.00050313    -0.11300
C1473       C  0.50841084  0.38796912  0.98696522     0.10800
C1474       C  0.48985549  0.36877816  0.63201122    -0.11300
H1475       H  0.45986991  0.35755432  0.61140860     0.14800
H1476       H  0.46848389  0.42015693  0.01485142     0.14800
H1477       H  0.50557553  0.42034772  0.00644513     0.14800
H1478       H  0.49747333  0.35648330  0.60931317     0.14800
C1479       C  0.35960143  0.50688380  0.93025431    -0.11300
C1480       C  0.34552289  0.49563024  0.96307917     0.10800
C1481       C  0.33037112  0.50640191  0.99403675    -0.11300
C1482       C  0.33073234  0.53449276  0.61397629    -0.11300
C1483       C  0.34571014  0.53907867  0.96573702     0.10800
C1484       C  0.35973489  0.52820281  0.93169713    -0.11300
H1485       H  0.37109181  0.49920470  0.90449644     0.14800
H1486       H  0.31930590  0.49818274  0.01981449     0.14800
H1487       H  0.31678568  0.54266197  0.60393224     0.14800
H1488       H  0.37132401  0.53617504  0.90712205     0.14800
C1489       C  0.67244208  0.32202528  0.75107908    -0.14400
C1490       C  0.67168052  0.33859071  0.71777530    -0.29600
H1491       H  0.66012379  0.31950712  0.78159343     0.14600
H1492       H  0.68473724  0.34241502  0.69094423     0.15200
C1493       C  0.67329373  0.32615497  0.49886238    -0.14400
C1494       C  0.65682636  0.32652059  0.53383709    -0.29600
H1495       H  0.65847019  0.31394663  0.96564059     0.14600
H1496       H  0.65351912  0.31319046  0.55951410     0.15200
C1497       C  0.69096303  0.30146007  0.85909689    -0.14400
C1498       C  0.68832469  0.28698295  0.89855723    -0.29600
H1499       H  0.69352413  0.31722376  0.87193990     0.14600
H1500       H  0.68572508  0.27132246  0.88513048     0.15200
C1501       C  0.69022190  0.30321272  0.60938282    -0.14400
C1502       C  0.70415386  0.30855895  0.64819281    -0.29600
H1503       H  0.67548149  0.29705826  0.62294642     0.14600
H1504       H  0.71922645  0.31336083  0.63304338     0.15200
C1505       C  0.79526133  0.21173059  0.86665229    -0.14400
C1506       C  0.79483575  0.19584407  0.83026859    -0.29600
H1507       H  0.80821747  0.21362919  0.89448515     0.14600
H1508       H  0.78088523  0.19295870  0.80692870     0.15200
C1509       C  0.74253760  0.26330416  0.93765853    -0.14400
C1510       C  0.72252611  0.26162363  0.95163501    -0.29600
H1511       H  0.75068737  0.27750447  0.94556865     0.14600
H1512       H  0.71397481  0.24807773  0.93936314     0.15200
C1513       C  0.74277765  0.26375705  0.81337049    -0.14400
C1514       C  0.72245802  0.26769428  0.81674679    -0.29600
H1515       H  0.75254773  0.27266532  0.78536391     0.14600
H1516       H  0.71309463  0.25809715  0.84357452     0.15200
C1517       C  0.78271154  0.20388970  0.62143805    -0.14400
C1518       C  0.80006431  0.20319439  0.65115458    -0.29600
H1519       H  0.77972375  0.19219013  0.59003016     0.14600
H1520       H  0.80408073  0.21608180  0.67788491     0.15200
C1521       C  0.73239150  0.25629934  0.69090051    -0.14400
C1522       C  0.73150101  0.27676290  0.69282363    -0.29600
H1523       H  0.72220113  0.24723572  0.71742263     0.14600
H1524       H  0.74168186  0.28582633  0.66630063     0.15200
C1525       C  0.75965220  0.22309592  0.73004228    -0.14400
C1526       C  0.77221120  0.23264011  0.76606469    -0.29600
H1527       H  0.74659191  0.21456843  0.74664546     0.14600
H1528       H  0.78449326  0.24234292  0.74996120     0.15200
C1529       C  0.76855148  0.23032769  0.51812492    -0.14400
C1530       C  0.77741961  0.23410841  0.97897340    -0.29600
H1531       H  0.76292975  0.21636773  0.49872805     0.14600
H1532       H  0.79265843  0.24028950  0.98606373     0.15200
C1533       C  0.72038789  0.27082231  0.56959743    -0.14400
C1534       C  0.74046682  0.26565414  0.56667079    -0.29600
H1535       H  0.71004539  0.26256371  0.59768120     0.14600
H1536       H  0.75081133  0.27468863  0.54110034     0.15200
C1537       C  0.67143932  0.72107137  0.73074390    -0.14400
C1538       C  0.66993724  0.70302952  0.70344022    -0.29600
H1539       H  0.65931807  0.72570317  0.75995153     0.14600
H1540       H  0.68306819  0.69753938  0.67903757     0.15200
C1541       C  0.67063303  0.71570468  0.48324625    -0.14400
C1542       C  0.67002743  0.70045425  0.52147708    -0.29600
H1543       H  0.65892040  0.71633227  0.45121445     0.14600
H1544       H  0.68283474  0.69849289  0.54974125     0.15200
C1545       C  0.69186554  0.73710891  0.87260052    -0.14400
C1546       C  0.69123463  0.75006838  0.82899413    -0.29600
H1547       H  0.69341521  0.72076005  0.86508214     0.14600
H1548       H  0.69015683  0.76635431  0.83818177     0.15200
C1549       C  0.68931040  0.74005498  0.58772609    -0.14400
C1550       C  0.70164697  0.72969811  0.62235138    -0.29600
H1551       H  0.67823419  0.75083593  0.60531184     0.14600
H1552       H  0.71415494  0.72078803  0.60388874     0.15200
C1553       C  0.78631606  0.83417854  0.83721766    -0.14400
C1554       C  0.80241749  0.83164120  0.80156184    -0.29600
H1555       H  0.78514739  0.84812294  0.86208326     0.14600
H1556       H  0.80470579  0.81694126  0.78095077     0.15200
C1557       C  0.72857978  0.78945939  0.91700795    -0.14400
C1558       C  0.72450979  0.76915401  0.91468306    -0.29600
H1559       H  0.71917336  0.79960695  0.94256224     0.14600
H1560       H  0.73401963  0.75911129  0.88904833     0.15200
C1561       C  0.73039462  0.78389853  0.79530683    -0.14400
C1562       C  0.73301440  0.76415821  0.78305634    -0.29600
H1563       H  0.71600741  0.79153300  0.78595495     0.14600
H1564       H  0.74759408  0.75677910  0.79154286     0.15200
C1565       C  0.78631367  0.83235181  0.59127861    -0.14400
C1566       C  0.80468494  0.83094622  0.56499130    -0.29600
H1567       H  0.78271226  0.84581008  0.61653023     0.14600
H1568       H  0.80905104  0.81665267  0.54452506     0.15200
C1569       C  0.73692848  0.77870498  0.66262819    -0.14400
C1570       C  0.73482391  0.75815659  0.66054423    -0.29600
H1571       H  0.72700938  0.78774886  0.68998746     0.14600
H1572       H  0.74371937  0.74902667  0.63053847     0.15200
C1573       C  0.76391002  0.81555990  0.70089373    -0.14400
C1574       C  0.76791709  0.80269032  0.74337678    -0.29600
H1575       H  0.75966004  0.83136259  0.70943658     0.14600
H1576       H  0.77170194  0.78690691  0.73291055     0.15200
C1577       C  0.77042117  0.80376513  0.48944665    -0.14400
C1578       C  0.76295662  0.82064979  0.95359324    -0.29600
H1579       H  0.77543399  0.78985805  0.46804191     0.14600
H1580       H  0.75851397  0.83607808  0.96584533     0.15200
C1581       C  0.74116925  0.77284606  0.53701577    -0.14400
C1582       C  0.72063231  0.77032750  0.54410145    -0.29600
H1583       H  0.74924986  0.76433356  0.50390861     0.14600
H1584       H  0.71240985  0.77891112  0.57678527     0.15200
C1585       C  0.29677800  0.71740746  0.73061647    -0.14400
C1586       C  0.29651935  0.70050398  0.69817009    -0.29600
H1587       H  0.30885831  0.71917470  0.76134657     0.14600
H1588       H  0.28338840  0.69742274  0.67173065     0.15200
C1589       C  0.29459008  0.71905477  0.49389007    -0.14400
C1590       C  0.29380794  0.70205921  0.52583097    -0.29600
H1591       H  0.30851875  0.72289439  0.47056697     0.14600
H1592       H  0.27920365  0.69474701  0.03909628     0.15200
C1593       C  0.27568006  0.74454102  0.88342747    -0.14400
C1594       C  0.27248290  0.73330324  0.83707931    -0.29600
H1595       H  0.28111561  0.76017307  0.87864738     0.14600
H1596       H  0.26650606  0.71784051  0.84141954     0.15200
C1597       C  0.26059532  0.73125108  0.58951581    -0.14400
C1598       C  0.27490547  0.73805585  0.62517767    -0.29600
H1599       H  0.24605359  0.72595098  0.60703464     0.14600
H1600       H  0.28938865  0.74399619  0.60893275     0.15200
C1601       C  0.17977287  0.83328271  0.85328750    -0.14400
C1602       C  0.16373401  0.83297957  0.81796516    -0.29600
H1603       H  0.18172302  0.84598939  0.88228539     0.14600
H1604       H  0.16090538  0.81916523  0.79370897     0.15200
C1605       C  0.22846232  0.77902567  0.92108532    -0.14400
C1606       C  0.23199082  0.75881370  0.91537363    -0.29600
H1607       H  0.23705041  0.78790163  0.95101667     0.14600
H1608       H  0.22373748  0.74990892  0.88451417     0.15200
C1609       C  0.22571859  0.77432460  0.79397007    -0.14400
C1610       C  0.24602842  0.77090166  0.79892054    -0.29600
H1611       H  0.21701181  0.76623987  0.76232987     0.14600
H1612       H  0.25451702  0.77899329  0.83103002     0.15200
C1613       C  0.17400393  0.82315968  0.59330589    -0.14400
C1614       C  0.17213534  0.84116969  0.62057041    -0.29600
H1615       H  0.16324903  0.81924147  0.56045253     0.14600
H1616       H  0.18413130  0.84590459  0.64916330     0.15200
C1617       C  0.23544610  0.78513559  0.67439507    -0.14400
C1618       C  0.24041054  0.76509435  0.67164619    -0.29600
H1619       H  0.24341606  0.79527308  0.70299603     0.14600
H1620       H  0.23155302  0.75514260  0.64485272     0.15200
C1621       C  0.19405352  0.80787102  0.70864110    -0.14400
C1622       C  0.20570712  0.81342697  0.75192025    -0.29600
H1623       H  0.17909291  0.80097005  0.71633975     0.14600
H1624       H  0.22076434  0.81999420  0.74342700     0.15200
C1625       C  0.19795879  0.81118957  0.96322974    -0.14400
C1626       C  0.19771959  0.79705401  0.49898550    -0.29600
H1627       H  0.20061895  0.82686672  0.97664773     0.14600
H1628       H  0.19589215  0.78157972  0.48291460     0.15200
C1629       C  0.23383827  0.77695335  0.55230151    -0.14400
C1630       C  0.22966523  0.75791291  0.53494223    -0.29600
H1631       H  0.24940851  0.78284441  0.54810956     0.14600
H1632       H  0.21443763  0.75139956  0.54079971     0.15200
loop_ 
_geom_bond_atom_site_label_1 
_geom_bond_atom_site_label_2 
_geom_bond_distance 
_geom_bond_site_symmetry_2 
_ccdc_geom_bond_type 
N1            C5   1.355       .  A
N1            C2   1.342       .  A
N1          C813   1.429       .  S
C2            C3   1.395       .  A
C2          C801   1.497       .  S
C3            C4   1.405       .  A
C3          C805   1.479       .  S
C4            C5   1.403       .  A
C4          C797   1.497       .  S
C5          C810   1.488       .  S
N6           C10   1.358       .  A
N6            C7   1.345       .  A
N6          C789   1.435       .  S
C7            C8   1.382       .  A
C7          C793   1.478       .  S
C8            C9   1.391       .  A
C8          C806   1.471       .  S
C9           C10   1.395       .  A
C9          C785   1.480       .  S
C10         C809   1.488       .  S
N11          C15   1.353       .  A
N11         C828   1.341   1_554  A
N11         C814   1.434       .  S
C12         N827   1.340       .  A
C12          C13   1.387       .  A
C12         C790   1.469       .  S
C13          C14   1.412       .  A
C13         C777   1.493       .  S
C14         C831   1.408       .  A
C14        C1589   1.488       .  S
C15         C830   1.409   1_554  A
C15         C781   1.488       .  S
N16          C20   1.359       .  A
N16          C17   1.358       .  A
N16         C802   1.449       .  S
C17          C18   1.402       .  A
C17         C794   1.484       .  S
C18          C19   1.400       .  A
C18         C778   1.499       .  S
C19          C20   1.398       .  A
C19         C769   1.489       .  S
C20         C782   1.494       .  S
N21          C25   1.354       .  A
N21          C22   1.339       .  A
N21         C765   1.440       .  S
C22          C23   1.391       .  A
C22         C753   1.470       .  S
C23          C24   1.408       .  A
C23         C757   1.497       .  S
C24          C25   1.412       .  A
C24         C749   1.492       .  S
C25         C761   1.490   1_554  S
N26          C30   1.352       .  A
N26          C27   1.338       .  A
N26         C745   1.423       .  S
C27          C28   1.388       .  A
C27         C741   1.494       .  S
C28          C29   1.404       .  A
C28         C762   1.478       .  S
C29          C30   1.404       .  A
C29         C737   1.486       .  S
C30         C758   1.489       .  S
N31          C35   1.357       .  A
N31         C848   1.348   1_554  A
N31         C766   1.440       .  S
C32         N847   1.350       .  A
C32          C33   1.404       .  A
C32         C742   1.484       .  S
C33         C850   1.405       .  A
C33         C729   1.500       .  S
C34          C35   1.395   1_556  A
C34         C849   1.395       .  A
C34         C725   1.485       .  S
C35         C733   1.484       .  S
N36          C40   1.345       .  A
N36          C37   1.332       .  A
N36         C754   1.437       .  S
C37          C38   1.383       .  A
C37         C746   1.453       .  S
C38          C39   1.410       .  A
C38         C730   1.492       .  S
C39          C40   1.412       .  A
C39         C721   1.486       .  S
C40         C734   1.481       .  S
N41          C45   1.351       .  A
N41          C42   1.347       .  A
N41         C705   1.438       .  S
C42          C43   1.391       .  A
C42         C718   1.475       .  S
C43          C44   1.409       .  A
C43         C713   1.493       .  S
C44          C45   1.402       .  A
C44         C701   1.490       .  S
C45         C709   1.489       .  S
N46          C50   1.353       .  A
N46          C47   1.340       .  A
N46         C697   1.435       .  S
C47          C48   1.380       .  A
C47         C693   1.472       .  S
C48          C49   1.401       .  A
C48         C714   1.479       .  S
C49          C50   1.405       .  A
C49         C689   1.483       .  S
C50         C710   1.485       .  S
N51          C55   1.359       .  A
N51         C868   1.350   1_554  A
N51         C717   1.439       .  S
C52         N867   1.349       .  A
C52          C53   1.395       .  A
C52         C694   1.471       .  S
C53         C870   1.413       .  A
C53         C682   1.506       .  S
C54          C55   1.402   1_556  A
C54         C869   1.399       .  A
C54         C677   1.484       .  S
C55         C685   1.494       .  S
N56          C60   1.349       .  A
N56          C57   1.350       .  A
N56         C706   1.445       .  S
C57          C58   1.397       .  A
C57         C698   1.469       .  S
C58          C59   1.409       .  A
C58         C681   1.511       .  S
C59          C60   1.407       .  A
C59         C673   1.484       .  S
C60         C686   1.491       .  S
N61          C65   1.351       .  A
N61          N62   1.317       .  A
N61         Cu69   2.088       .  S
N62          C63   1.340       .  A
N62         Cu68   2.058       .  S
C63          C64   1.388       .  A
C63          H66   1.081       .  S
C64          C65   1.395       .  A
C64         C654   1.493       .  S
C65          H67   1.081       .  S
Cu68         N71   2.058       .  S
Cu69         N79   2.091       .  S
Cu70         N72   2.107       .  S
Cu70         N78   2.109       .  S
N71          C75   1.337       .  A
N71          N72   1.321       .  A
N72          C73   1.355       .  A
C73          C74   1.396       .  A
C73          H76   1.082       .  S
C74          C75   1.384       .  A
C74         C664   1.493       .  S
C75          H77   1.080       .  S
N78          C82   1.353       .  A
N78          N79   1.328       .  A
N79          C80   1.344       .  A
C80          C81   1.380       .  A
C80          H83   1.082       .  S
C81          C82   1.388       .  A
C81         C649   1.481       .  S
C82          H84   1.082       .  S
N85          C89   1.353       .  A
N85          N86   1.318       .  A
N85         Cu93   2.089       .  S
N86          C87   1.337       .  A
N86         Cu92   2.050       .  S
C87          C88   1.383       .  A
C87          H90   1.082       .  S
C88          C89   1.393       .  A
C88         C630   1.484       .  S
C89          H91   1.082       .  S
Cu92         N95   2.050       .  S
Cu93        N103   2.093       .  S
Cu94         N96   2.113       .  S
Cu94        N102   2.116       .  S
N95          C99   1.338       .  A
N95          N96   1.319       .  A
N96          C97   1.355       .  A
C97          C98   1.399       .  A
C97         H100   1.081       .  S
C98          C99   1.384       .  A
C98         C640   1.496       .  S
C99         H101   1.080       .  S
N102        C106   1.352       .  A
N102        N103   1.328       .  A
N103        C104   1.346       .  A
C104        C105   1.380       .  A
C104        H107   1.082       .  S
C105        C106   1.388       .  A
C105        C625   1.483       .  S
C106        H108   1.082       .  S
N109        C113   1.354       .  A
N109        N110   1.319       .  A
N109       Cu117   2.098   1_556  S
N110        C111   1.340       .  A
N110       Cu116   2.063       .  S
C111        C112   1.385       .  A
C111        H114   1.082       .  S
C112        C113   1.394       .  A
C112       C1483   1.489       .  S
C113        H115   1.081       .  S
Cu116       N119   2.063       .  S
Cu117       N127   2.101       .  S
Cu118       N120   2.109       .  S
Cu118       N126   2.112   1_556  S
N119        C123   1.339       .  A
N119        N120   1.321       .  A
N120        C121   1.356       .  A
C121        C122   1.395       .  A
C121        H124   1.082       .  S
C122        C123   1.383       .  A
C122        C616   1.490       .  S
C123        H125   1.082       .  S
N126        C130   1.353       .  A
N126        N127   1.328       .  A
N127        C128   1.346       .  A
C128        C129   1.382       .  A
C128        H131   1.082       .  S
C129        C130   1.389       .  A
C129        C774   1.487       .  S
C130        H132   1.082       .  S
N133        C137   1.354       .  A
N133        N134   1.319       .  A
N133       Cu141   2.104       .  S
N134        C135   1.340       .  A
N134       Cu140   2.053       .  S
C135        C136   1.384       .  A
C135        H138   1.082       .  S
C136        C137   1.396       .  A
C136        C643   1.491       .  S
C137        H139   1.081       .  S
Cu140       N143   2.053       .  S
Cu141       N151   2.108       .  S
Cu142       N144   2.099       .  S
Cu142       N150   2.102       .  S
N143        C147   1.336       .  A
N143        N144   1.319       .  A
N144        C145   1.355       .  A
C145        C146   1.396       .  A
C145        H148   1.082       .  S
C146        C147   1.384       .  A
C146        C609   1.491       .  S
C147        H149   1.081       .  S
N150        C154   1.349       .  A
N150        N151   1.328       .  A
N151        C152   1.349       .  A
C152        C153   1.384       .  A
C152        H155   1.082       .  S
C153        C154   1.385       .  A
C153        C770   1.485       .  S
C154        H156   1.082       .  S
N157        C161   1.351       .  A
N157        N158   1.319       .  A
N157       Cu165   2.084       .  S
N158        C159   1.338       .  A
N158       Cu164   2.053       .  S
C159        C160   1.383       .  A
C159        H162   1.082       .  S
C160        C161   1.391       .  A
C160       C1473   1.482       .  S
C161        H163   1.081       .  S
Cu164       N167   2.053       .  S
Cu165       N175   2.088       .  S
Cu166       N168   2.102       .  S
Cu166       N174   2.105   1_556  S
N167        C171   1.337       .  A
N167        N168   1.319       .  A
N168        C169   1.355       .  A
C169        C170   1.397       .  A
C169        H172   1.082       .  S
C170        C171   1.384       .  A
C170        C596   1.492       .  S
C171        H173   1.081       .  S
N174        C178   1.348       .  A
N174        N175   1.328   1_554  A
N175        C176   1.347   1_556  A
C176        C177   1.383       .  A
C176        H179   1.082   1_554  S
C177        C178   1.383       .  A
C177        C678   1.480       .  S
C178        H180   1.081       .  S
N181        C185   1.353       .  A
N181        N182   1.321       .  A
N181       Cu189   2.099       .  S
N182        C183   1.338       .  A
N182       Cu188   2.055       .  S
C183        C184   1.380       .  A
C183        H186   1.082       .  S
C184        C185   1.391       .  A
C184        C633   1.482       .  S
C185        H187   1.081       .  S
Cu188       N191   2.055       .  S
Cu189       N199   2.101       .  S
Cu190       N192   2.080       .  S
Cu190       N198   2.083       .  S
N191        C195   1.339       .  A
N191        N192   1.317       .  A
N192        C193   1.350       .  A
C193        C194   1.393       .  A
C193        H196   1.081       .  S
C194        C195   1.388       .  A
C194        C586   1.490       .  S
C195        H197   1.081       .  S
N198        C202   1.344       .  A
N198        N199   1.326       .  A
N199        C200   1.351       .  A
C200        C201   1.387       .  A
C200        H203   1.082       .  S
C201        C202   1.378       .  A
C201        C674   1.477       .  S
C202        H204   1.082       .  S
N205        C209   1.354       .  A
N205        N206   1.320       .  A
N205       Cu213   2.096   1_556  S
N206        C207   1.340       .  A
N206       Cu212   2.064       .  S
C207        C208   1.384       .  A
C207        H210   1.082       .  S
C208        C209   1.393       .  A
C208        C599   1.488       .  S
C209        H211   1.081       .  S
Cu212       N215   2.064       .  S
Cu213       N223   2.099       .  S
Cu214       N216   2.099       .  S
Cu214       N222   2.102   1_556  S
N215        C219   1.339       .  A
N215        N216   1.320       .  A
N216        C217   1.355       .  A
C217        C218   1.394       .  A
C217        H220   1.082       .  S
C218        C219   1.385       .  A
C218        C619   1.491       .  S
C219        H221   1.082       .  S
N222        C226   1.349       .  A
N222        N223   1.328       .  A
N223        C224   1.348       .  A
C224        C225   1.382       .  A
C224        H227   1.082       .  S
C225        C226   1.385       .  A
C225        C726   1.481       .  S
C226        H228   1.082       .  S
N229        C233   1.353       .  A
N229        N230   1.315       .  A
N229       Cu237   2.087       .  S
N230        C231   1.336       .  A
N230       Cu236   2.039       .  S
C231        C232   1.383       .  A
C231        H234   1.081       .  S
C232        C233   1.396       .  A
C232        C589   1.486       .  S
C233        H235   1.082       .  S
Cu236       N239   2.038       .  S
Cu237       N247   2.092       .  S
Cu238       N240   2.109       .  S
Cu238       N246   2.114       .  S
N239        C243   1.333       .  A
N239        N240   1.319       .  A
N240        C241   1.357       .  A
C241        C242   1.399       .  A
C241        H244   1.082       .  S
C242        C243   1.380       .  A
C242        C606   1.490       .  S
C243        H245   1.081       .  S
N246        C250   1.353       .  A
N246        N247   1.330       .  A
N247        C248   1.343       .  A
C248        C249   1.377       .  A
C248        H251   1.082       .  S
C249        C250   1.387       .  A
C249        C722   1.478       .  S
C250        H252   1.082       .  S
N253        C257   1.356       .  A
N253        N254   1.318       .  A
N253       Cu261   2.106       .  S
N254        C255   1.339       .  A
N254       Cu260   2.055       .  S
C255        C256   1.385       .  A
C255        H258   1.081       .  S
C256        C257   1.398       .  A
C256        C576   1.495       .  S
C257        H259   1.081       .  S
Cu260       N263   2.055       .  S
Cu261       N271   2.110       .  S
Cu262       N264   2.100       .  S
Cu262       N270   2.102       .  S
N263        C267   1.339       .  A
N263        N264   1.320       .  A
N264        C265   1.353       .  A
C265        C266   1.395       .  A
C265        H268   1.081       .  S
C266        C267   1.384       .  A
C266        C566   1.490       .  S
C267        H269   1.081       .  S
N270        C274   1.353       .  A
N270        N271   1.328       .  A
N271        C272   1.346       .  A
C272        C273   1.383       .  A
C272        H275   1.082       .  S
C273        C274   1.386       .  A
C273        C702   1.483       .  S
C274        H276   1.082       .  S
N277        C281   1.353       .  A
N277        N278   1.319       .  A
N277       Cu285   2.099       .  S
N278        C279   1.339       .  A
N278       Cu284   2.058       .  S
C279        C280   1.386       .  A
C279        H282   1.081       .  S
C280        C281   1.396       .  A
C280        C546   1.494       .  S
C281        H283   1.081       .  S
Cu284       N287   2.058       .  S
Cu285       N295   2.102       .  S
Cu286       N288   2.093       .  S
Cu286       N294   2.096       .  S
N287        C291   1.338       .  A
N287        N288   1.319       .  A
N288        C289   1.353       .  A
C289        C290   1.394       .  A
C289        H292   1.082       .  S
C290        C291   1.384       .  A
C290        C556   1.488       .  S
C291        H293   1.081       .  S
N294        C298   1.348       .  A
N294        N295   1.328       .  A
N295        C296   1.349       .  A
C296        C297   1.383       .  A
C296        H299   1.082       .  S
C297        C298   1.384       .  A
C297        C690   1.482       .  S
C298        H300   1.082       .  S
N301        C305   1.351       .  A
N301        N302   1.317       .  A
N301       Cu309   2.084       .  S
N302        C303   1.340       .  A
N302       Cu308   2.054       .  S
C303        C304   1.386       .  A
C303        H306   1.081       .  S
C304        C305   1.393       .  A
C304        C569   1.488   1_565  S
C305        H307   1.081       .  S
Cu308       N311   2.055       .  S
Cu309       N319   2.087       .  S
Cu310       N312   2.120       .  S
Cu310       N318   2.122       .  S
N311        C315   1.338       .  A
N311        N312   1.322       .  A
N312        C313   1.357       .  A
C313        C314   1.396       .  A
C313        H316   1.082       .  S
C314        C315   1.380       .  A
C314        C536   1.489       .  S
C315        H317   1.082       .  S
N318        C322   1.355       .  A
N318        N319   1.328       .  A
N319        C320   1.344       .  A
C320        C321   1.379       .  A
C320        H323   1.082       .  S
C321        C322   1.392       .  A
C321        C750   1.484       .  S
C322        H324   1.082       .  S
N325        C329   1.355       .  A
N325        N326   1.319       .  A
N325       Cu333   2.104       .  S
N326        C327   1.337       .  A
N326       Cu332   2.048       .  S
C327        C328   1.381       .  A
C327        H330   1.082       .  S
C328        C329   1.396       .  A
C328        C549   1.487       .  S
C329        H331   1.081       .  S
Cu332       N335   2.048       .  S
Cu333       N343   2.108       .  S
Cu334       N336   2.090       .  S
Cu334       N342   2.094       .  S
N335        C339   1.336       .  A
N335        N336   1.319       .  A
N336        C337   1.353       .  A
C337        C338   1.391       .  A
C337        H340   1.082       .  S
C338        C339   1.379       .  A
C338        C526   1.476       .  S
C339        H341   1.082       .  S
N342        C346   1.348       .  A
N342        N343   1.328       .  A
N343        C344   1.349       .  A
C344        C345   1.386       .  A
C344        H347   1.082       .  S
C345        C346   1.381       .  A
C345        C738   1.483       .  S
C346        H348   1.082       .  S
N349        C353   1.353       .  A
N349        N350   1.317       .  A
N349       Cu357   2.096       .  S
N350        C351   1.340       .  A
N350       Cu356   2.054       .  S
C351        C352   1.386       .  A
C351        H354   1.081       .  S
C352        C353   1.396       .  A
C352        C516   1.492       .  S
C353        H355   1.081       .  S
Cu356       N359   2.054       .  S
Cu357       N367   2.100       .  S
Cu358       N360   2.119       .  S
Cu358       N366   2.122       .  S
N359        C363   1.338       .  A
N359        N360   1.322       .  A
N360        C361   1.357       .  A
C361        C362   1.396       .  A
C361        H364   1.082       .  S
C362        C363   1.380       .  A
C362        C539   1.489       .  S
C363        H365   1.082       .  S
N366        C370   1.356       .  A
N366        N367   1.328       .  A
N367        C368   1.345       .  A
C368        C369   1.381       .  A
C368        H371   1.082       .  S
C369        C370   1.391       .  A
C369        C798   1.488       .  S
C370        H372   1.082       .  S
N373        C377   1.353       .  A
N373        N374   1.319       .  A
N373       Cu381   2.085       .  S
N374        C375   1.337       .  A
N374       Cu380   2.053       .  S
C375        C376   1.382       .  A
C375        H378   1.081       .  S
C376        C377   1.391       .  A
C376        C529   1.482       .  S
C377        H379   1.082       .  S
Cu380       N383   2.053       .  S
Cu381       N391   2.089       .  S
Cu382       N384   2.093       .  S
Cu382       N390   2.097       .  S
N383        C387   1.338       .  A
N383        N384   1.319       .  A
N384        C385   1.353       .  A
C385        C386   1.392       .  A
C385        H388   1.081       .  S
C386        C387   1.381       .  A
C386        C506   1.483       .  S
C387        H389   1.082       .  S
N390        C394   1.349       .  A
N390        N391   1.328       .  A
N391        C392   1.345       .  A
C392        C393   1.379       .  A
C392        H395   1.082       .  S
C393        C394   1.384       .  A
C393        C786   1.476       .  S
C394        H396   1.082       .  S
N397        C401   1.357       .  A
N397        N398   1.320       .  A
N397       Cu405   2.117       .  S
N398        C399   1.338       .  A
N398       Cu404   2.055       .  S
C399        C400   1.385       .  A
C399        H402   1.081       .  S
C400        C401   1.400       .  A
C400        C579   1.498       .  S
C401        H403   1.081       .  S
Cu404       N407   2.055       .  S
Cu405       N415   2.120       .  S
Cu406       N408   2.098       .  S
Cu406       N414   2.102       .  S
N407        C411   1.339       .  A
N407        N408   1.318       .  A
N408        C409   1.353       .  A
C409        C410   1.397       .  A
C409        H412   1.081       .  S
C410        C411   1.386       .  A
C410        C519   1.494       .  S
C411        H413   1.081       .  S
N414        C418   1.347       .  A
N414        N415   1.328       .  A
N415        C416   1.354       .  A
C416        C417   1.390       .  A
C416        H419   1.081       .  S
C417        C418   1.382       .  A
C417        C501   1.488       .  S
C418        H420   1.082       .  S
N421        C425   1.353       .  A
N421        N422   1.319       .  A
N421       Cu429   2.092       .  S
N422        C423   1.338       .  A
N422       Cu428   2.054       .  S
C423        C424   1.383       .  A
C423        H426   1.082       .  S
C424        C425   1.393       .  A
C424        C559   1.486       .  S
C425        H427   1.082       .  S
Cu428       N431   2.054       .  S
Cu429       N439   2.096       .  S
Cu430       N432   2.097       .  S
Cu430       N438   2.100       .  S
N431        C435   1.337       .  A
N431        N432   1.319       .  A
N432        C433   1.354       .  A
C433        C434   1.395       .  A
C433        H436   1.082       .  S
C434        C435   1.384       .  A
C434        C509   1.489       .  S
C435        H437   1.081       .  S
N438        C442   1.347       .  A
N438        N439   1.328       .  A
N439        C440   1.348       .  A
C440        C441   1.384       .  A
C440        H443   1.082       .  S
C441        C442   1.383       .  A
C441        C498   1.482       .  S
C442        H444   1.082       .  S
N445        C449   1.352       .  A
N445        C446   1.341       .  A
N445        C481   1.449       .  S
C446        C447   1.386       .  A
C446        C494   1.454       .  S
C447        C448   1.412       .  A
C447        C489   1.504       .  S
C448        C449   1.418       .  A
C448        C502   1.493       .  S
C449        C485   1.490       .  S
N450        C454   1.363       .  A
N450        C451   1.351       .  A
N450        C477   1.447       .  S
C451        C452   1.381       .  A
C451        C473   1.473       .  S
C452        C453   1.396       .  A
C452        C490   1.487       .  S
C453        C454   1.405       .  A
C453        C497   1.485       .  S
C454        C486   1.495       .  S
N455        C459   1.351       .  A
N455       C1272   1.348       .  A
N455        C474   1.434       .  S
C456       N1271   1.343   1_554  A
C456        C457   1.382       .  A
C456        C493   1.465       .  S
C457        C458   1.409       .  A
C457        C470   1.492       .  S
C458       C1275   1.408   1_554  A
C458       C1466   1.486       .  S
C459       C1274   1.407       .  A
C459        C466   1.494       .  S
N460        C464   1.362       .  A
N460        C461   1.356       .  A
N460        C482   1.444       .  S
C461        C462   1.400       .  A
C461        C478   1.488       .  S
C462        C463   1.400       .  A
C462        C465   1.498       .  S
C463        C464   1.401       .  A
C463        C626   1.489       .  S
C464        C469   1.498       .  S
C465        C466   1.347       .  D
C465        H467   1.086       .  S
C466        H468   1.086       .  S
C469        C470   1.343       .  D
C469        H471   1.085       .  S
C470        H472   1.087       .  S
C473        C474   1.334       .  D
C473        H475   1.085       .  S
C474        H476   1.086       .  S
C477        C478   1.348       .  D
C477        H479   1.080       .  S
C478        H480   1.085       .  S
C481        C482   1.352       .  D
C481        H483   1.084       .  S
C482        H484   1.085       .  S
C485        C486   1.343       .  D
C485        H487   1.085       .  S
C486        H488   1.086       .  S
C489       C1306   1.356   1_554  D
C489        H491   1.086       .  S
C490       C1305   1.347       .  D
C490        H492   1.085       .  S
C493        C494   1.335       .  D
C493        H495   1.086       .  S
C494        H496   1.085       .  S
C497        C498   1.346       .  D
C497        H499   1.086       .  S
C498        H500   1.086       .  S
C501        C502   1.349       .  D
C501        H503   1.086       .  S
C502        H504   1.086       .  S
C505        C506   1.401   1_545  A
C505        C510   1.390       .  A
C505        H511   1.082       .  S
C506        C507   1.406   1_565  A
C507        C508   1.409       .  A
C507        H512   1.083       .  S
C508        C509   1.409       .  A
C508        H513   1.082       .  S
C509        C510   1.405       .  A
C510        H514   1.081       .  S
C515        C516   1.405   1_545  A
C515        C520   1.394       .  A
C515        H521   1.081   1_545  S
C516        C517   1.408   1_565  A
C517        C518   1.408       .  A
C517        H522   1.082       .  S
C518        C519   1.408       .  A
C518        H523   1.082       .  S
C519        C520   1.406       .  A
C520        H524   1.081       .  S
C525        C526   1.400       .  A
C525        C530   1.388       .  A
C525        H531   1.083       .  S
C526        C527   1.406       .  A
C527        C528   1.408       .  A
C527        H532   1.083       .  S
C528        C529   1.408   1_655  A
C528        H533   1.083   1_655  S
C529        C530   1.403   1_455  A
C530        H534   1.082   1_655  S
C535        C536   1.404       .  A
C535        C540   1.393       .  A
C535       H1357   1.083       .  S
C536        C537   1.408       .  A
C537        C538   1.412       .  A
C537        H542   1.082       .  S
C538        C539   1.408   1_655  A
C538        H543   1.082   1_655  S
C539        C540   1.404   1_455  A
C540       H1360   1.083   1_655  S
H541       C1351   1.082       .  S
H544       C1356   1.082   1_455  S
C545        C546   1.406       .  A
C545        C550   1.392       .  A
C545        H551   1.081       .  S
C546        C547   1.410       .  A
C547        C548   1.409       .  A
C547        H552   1.081       .  S
C548        C549   1.406   1_545  A
C548        H553   1.082       .  S
C549        C550   1.403   1_565  A
C550        H554   1.082       .  S
C555        C556   1.404       .  A
C555        C560   1.391       .  A
C555        H561   1.081       .  S
C556        C557   1.408       .  A
C557        C558   1.409       .  A
C557        H562   1.082       .  S
C558        C559   1.407   1_655  A
C558        H563   1.083   1_655  S
C559        C560   1.403   1_455  A
C560        H564   1.082   1_655  S
C565        C566   1.407       .  A
C565        C570   1.406       .  A
C565        H571   1.082       .  S
C566        C567   1.406       .  A
C567        C568   1.393       .  A
C567        H572   1.081       .  S
C568        C569   1.404       .  A
C568        H573   1.082       .  S
C569        C570   1.408       .  A
C570        H574   1.082       .  S
C575        C576   1.405       .  A
C575        C580   1.394       .  A
C575        H581   1.082       .  S
C576        C577   1.409       .  A
C577        C578   1.412       .  A
C577        H582   1.082       .  S
C578        C579   1.409   1_655  A
C578        H583   1.082   1_655  S
C579        C580   1.407   1_455  A
C580        H584   1.081   1_655  S
C585        C586   1.409       .  A
C585        C590   1.406       .  A
C585        H591   1.081       .  S
C586        C587   1.405       .  A
C587        C588   1.391       .  A
C587        H592   1.080       .  S
C588        C589   1.404       .  A
C588        H593   1.081       .  S
C589        C590   1.406       .  A
C590        H594   1.082       .  S
C595        C596   1.406       .  A
C595        C600   1.392       .  A
C595        H601   1.082       .  S
C596        C597   1.409       .  A
C597        C598   1.410       .  A
C597        H602   1.082       .  S
C598        C599   1.408       .  A
C598        H603   1.083   1_556  S
C599        C600   1.403       .  A
C600        H604   1.082       .  S
C605        C606   1.404       .  A
C605        C610   1.387       .  A
C605        H611   1.081       .  S
C606        C607   1.408       .  A
C607        C608   1.412       .  A
C607        H612   1.082       .  S
C608        C609   1.410       .  A
C608        H613   1.082       .  S
C609        C610   1.403       .  A
C610        H614   1.081       .  S
C615        C616   1.409       .  A
C615        C620   1.412       .  A
C615       H1437   1.083   1_556  S
C616        C617   1.404       .  A
C617        C618   1.392       .  A
C617        H622   1.083       .  S
C618        C619   1.404       .  A
C618        H623   1.082       .  S
C619        C620   1.409       .  A
C620       H1440   1.083   1_556  S
H621       C1431   1.082       .  S
H624       C1436   1.083       .  S
C625        C626   1.345       .  D
C625        H627   1.087       .  S
C626        H628   1.086       .  S
C629        C630   1.404       .  A
C629        C634   1.390       .  A
C629        H635   1.082       .  S
C630        C631   1.407       .  A
C631        C632   1.408       .  A
C631        H636   1.082       .  S
C632        C633   1.406       .  A
C632        H637   1.083       .  S
C633        C634   1.403       .  A
C634        H638   1.083       .  S
C639        C640   1.408       .  A
C639        C644   1.394       .  A
C639        H645   1.081       .  S
C640        C641   1.409       .  A
C641        C642   1.409       .  A
C641        H646   1.082       .  S
C642        C643   1.407       .  A
C642        H647   1.082       .  S
C643        C644   1.404       .  A
C644        H648   1.083       .  S
C649        C650   1.346       .  D
C649        H651   1.086       .  S
C650       C1274   1.486       .  S
C650        H652   1.086       .  S
C653        C658   1.406       .  A
C653       C1470   1.406       .  A
C653        H659   1.082       .  S
C654        C655   1.406       .  A
C654       C1469   1.409       .  A
C655        C656   1.394       .  A
C655        H660   1.081       .  S
C656        C657   1.405       .  A
C656        H661   1.081       .  S
C657       C1474   1.407       .  A
C657        C976   1.491       .  S
C658       C1473   1.407       .  A
C658        H662   1.082       .  S
C663        C664   1.405       .  A
C663        C668   1.390       .  A
C663        H669   1.080       .  S
C664        C665   1.408       .  A
C665       C1482   1.411       .  A
C665        H670   1.082       .  S
C666       C1481   1.411       .  A
C666       C1483   1.409       .  A
C666        H671   1.083   1_556  S
C667        C668   1.404       .  A
C667       C1482   1.410       .  A
C667        C928   1.494       .  S
C668        H672   1.079       .  S
C673        C674   1.344       .  D
C673        H675   1.086       .  S
C674        H676   1.086       .  S
C677        C678   1.346   1_556  D
C677       H1495   1.086       .  S
C678        H680   1.086       .  S
H679       C1493   1.086       .  S
C681        C682   1.354       .  D
C681        H683   1.086       .  S
C682        H684   1.086       .  S
C685        C686   1.345       .  D
C685        H687   1.086       .  S
C686        H688   1.086       .  S
C689        C690   1.345       .  D
C689        H691   1.086       .  S
C690        H692   1.086       .  S
C693        C694   1.339       .  D
C693        H695   1.087       .  S
C694        H696   1.086       .  S
C697        C698   1.342       .  D
C697        H699   1.086       .  S
C698        H700   1.077       .  S
C701        C702   1.350       .  D
C701        H703   1.086       .  S
C702        H704   1.086       .  S
C705        C706   1.345       .  D
C705        H707   1.085       .  S
C706        H708   1.086       .  S
C709        C710   1.345       .  D
C709        H711   1.086       .  S
C710        H712   1.086       .  S
C713       C1530   1.349   1_554  D
C713        H715   1.087       .  S
C714       C1529   1.341       .  D
C714        H716   1.086       .  S
C717        C718   1.342       .  D
C717        H719   1.087       .  S
C718        H720   1.081       .  S
C721        C722   1.345       .  D
C721        H723   1.086       .  S
C722        H724   1.086       .  S
C725        C726   1.345   1_556  D
C725        H727   1.086       .  S
C726        H728   1.086       .  S
C729        C730   1.349       .  D
C729        H731   1.086       .  S
C730        H732   1.087       .  S
C733        C734   1.339       .  D
C733        H735   1.086       .  S
C734        H736   1.087       .  S
C737        C738   1.344       .  D
C737        H739   1.087       .  S
C738        H740   1.085       .  S
C741        C742   1.357       .  D
C741        H743   1.085       .  S
C742        H744   1.077       .  S
C745        C746   1.325       .  D
C745        H747   1.087       .  S
C746        H748   1.087       .  S
C749        C750   1.346       .  D
C749        H751   1.086       .  S
C750        H752   1.085       .  S
C753        C754   1.349       .  D
C753        H755   1.081       .  S
C754        H756   1.081       .  S
C757        C758   1.344       .  D
C757        H759   1.085       .  S
C758        H760   1.087       .  S
C761       C1578   1.349       .  D
C761        H763   1.087       .  S
C762       C1577   1.342       .  D
C762        H764   1.086       .  S
C765        C766   1.340       .  D
C765        H767   1.085       .  S
C766        H768   1.083       .  S
C769        C770   1.347       .  D
C769        H771   1.086       .  S
C770        H772   1.086       .  S
C773        C830   1.491       .  S
C773        C774   1.348   1_556  D
C773        H775   1.086       .  S
C774       H1592   1.086       .  S
H776       C1590   1.086       .  S
C777        C778   1.348       .  D
C777        H779   1.086       .  S
C778        H780   1.086       .  S
C781        C782   1.343       .  D
C781        H783   1.086       .  S
C782        H784   1.086       .  S
C785        C786   1.343       .  D
C785        H787   1.086       .  S
C786        H788   1.087       .  S
C789        C790   1.341       .  D
C789        H791   1.084       .  S
C790        H792   1.085       .  S
C793        C794   1.344       .  D
C793        H795   1.084       .  S
C794        H796   1.086       .  S
C797        C798   1.351       .  D
C797        H799   1.086       .  S
C798        H800   1.086       .  S
C801        C802   1.352       .  D
C801        H803   1.085       .  S
C802        H804   1.082       .  S
C805        C806   1.335       .  D
C805        H807   1.087       .  S
C806        H808   1.086       .  S
C809       C1626   1.343       .  D
C809        H811   1.086       .  S
C810       C1625   1.350   1_554  D
C810        H812   1.086   1_554  S
C813        C814   1.339       .  D
C813        H815   1.086       .  S
C814        H816   1.085       .  S
N817        C821   1.348       .  A
N817        C818   1.343       .  A
N817       C1629   1.430       .  S
C818        C819   1.397       .  A
C818       C1617   1.489       .  S
C819        C820   1.403       .  A
C819       C1621   1.480       .  S
C820        C821   1.393       .  A
C820       C1613   1.486       .  S
C821       C1626   1.478       .  S
N822        C826   1.362       .  A
N822        C823   1.349       .  A
N822       C1605   1.439       .  S
C823        C824   1.385       .  A
C823       C1609   1.485       .  S
C824        C825   1.397       .  A
C824       C1622   1.476       .  S
C825        C826   1.402       .  A
C825       C1601   1.490       .  S
C826       C1625   1.498       .  S
N827        C831   1.347       .  A
N827       C1630   1.433       .  S
C828        C829   1.384       .  A
C828       C1606   1.478       .  S
C829        C830   1.405       .  A
C829       C1593   1.482       .  S
C831       C1597   1.490       .  S
N832        C836   1.361       .  A
N832        C833   1.356       .  A
N832       C1618   1.442       .  S
C833        C834   1.397       .  A
C833       C1610   1.488       .  S
C834        C835   1.395       .  A
C834       C1594   1.489       .  S
C835        C836   1.395       .  A
C835       C1585   1.484       .  S
C836       C1598   1.494       .  S
N837        C841   1.355       .  A
N837        C838   1.347       .  A
N837       C1581   1.447       .  S
C838        C839   1.394       .  A
C838       C1569   1.467       .  S
C839        C840   1.392       .  A
C839       C1573   1.493       .  S
C840        C841   1.401       .  A
C840       C1565   1.482       .  S
C841       C1577   1.476       .  S
N842        C846   1.348       .  A
N842        C843   1.337       .  A
N842       C1561   1.430       .  S
C843        C844   1.396       .  A
C843       C1557   1.483       .  S
C844        C845   1.413       .  A
C844       C1578   1.496       .  S
C845        C846   1.407       .  A
C845       C1553   1.491       .  S
C846       C1574   1.485       .  S
N847        C851   1.357       .  A
N847       C1582   1.443       .  S
C848        C849   1.401       .  A
C848       C1558   1.481       .  S
C849       C1545   1.492       .  S
C850        C851   1.402       .  A
C850       C1541   1.495       .  S
C851       C1549   1.486       .  S
N852        C856   1.351       .  A
N852        C853   1.337       .  A
N852       C1570   1.439       .  S
C853        C854   1.381       .  A
C853       C1562   1.468       .  S
C854        C855   1.406       .  A
C854       C1546   1.483       .  S
C855        C856   1.411       .  A
C855       C1537   1.492       .  S
C856       C1550   1.483       .  S
N857        C861   1.350       .  A
N857        C858   1.350       .  A
N857       C1521   1.432       .  S
C858        C859   1.396       .  A
C858       C1534   1.486       .  S
C859        C860   1.394       .  A
C859       C1529   1.486       .  S
C860        C861   1.394       .  A
C860       C1517   1.477       .  S
C861       C1525   1.482       .  S
N862        C866   1.355       .  A
N862        C863   1.352       .  A
N862       C1513   1.447       .  S
C863        C864   1.402       .  A
C863       C1509   1.477       .  S
C864        C865   1.403       .  A
C864       C1530   1.498       .  S
C865        C866   1.398       .  A
C865       C1505   1.490       .  S
C866       C1526   1.485       .  S
N867        C871   1.355       .  A
N867       C1533   1.449       .  S
C868        C869   1.387       .  A
C868       C1510   1.485       .  S
C869       C1498   1.485       .  S
C870        C871   1.413       .  A
C870       C1493   1.492       .  S
C871       C1501   1.499       .  S
N872        C876   1.353       .  A
N872        C873   1.353       .  A
N872       C1522   1.434       .  S
C873        C874   1.398       .  A
C873       C1514   1.496       .  S
C874        C875   1.404       .  A
C874       C1497   1.494       .  S
C875        C876   1.402       .  A
C875       C1489   1.485       .  S
C876       C1502   1.495       .  S
N877        C881   1.352       .  A
N877        N878   1.319   1_554  A
N877       Cu885   2.088       .  S
N878        C879   1.338       .  A
N878       Cu884   2.053       .  S
C879        C880   1.382       .  A
C879        H882   1.082       .  S
C880        C881   1.391   1_556  A
C880       C1470   1.480       .  S
C881        H883   1.082       .  S
Cu884       N887   2.053       .  S
Cu885       N895   2.091       .  S
Cu886       N888   2.107   1_554  S
Cu886       N894   2.110       .  S
N887        C891   1.337       .  A
N887        N888   1.320       .  A
N888        C889   1.356       .  A
C889        C890   1.396       .  A
C889        H892   1.081       .  S
C890        C891   1.383       .  A
C890       C1480   1.490       .  S
C891        H893   1.082       .  S
N894        C898   1.351       .  A
N894        N895   1.328       .  A
N895        C896   1.346       .  A
C896        C897   1.381       .  A
C896        H899   1.082       .  S
C897        C898   1.388       .  A
C897       C1465   1.484       .  S
C898        H900   1.081       .  S
N901        C905   1.355       .  A
N901        N902   1.319       .  A
N901       Cu909   2.098       .  S
N902        C903   1.338       .  A
N902       Cu908   2.057       .  S
C903        C904   1.384       .  A
C903        H906   1.081       .  S
C904        C905   1.395       .  A
C904       C1446   1.490       .  S
C905        H907   1.082       .  S
Cu908       N911   2.057       .  S
Cu909       N919   2.102       .  S
Cu910       N912   2.101       .  S
Cu910       N918   2.104       .  S
N911        C915   1.337       .  A
N911        N912   1.319       .  A
N912        C913   1.355       .  A
C913        C914   1.397       .  A
C913        H916   1.081       .  S
C914        C915   1.386       .  A
C914       C1456   1.494       .  S
C915        H917   1.080       .  S
N918        C922   1.349       .  A
N918        N919   1.329       .  A
N919        C920   1.348       .  A
C920        C921   1.383       .  A
C920        H923   1.082       .  S
C921        C922   1.386       .  A
C921       C1441   1.484       .  S
C922        H924   1.082       .  S
N925        C929   1.352       .  A
N925        N926   1.317       .  A
N925       Cu933   2.086       .  S
N926        C927   1.339       .  A
N926       Cu932   2.060       .  S
C927        C928   1.389       .  A
C927        H930   1.080       .  S
C928        C929   1.395       .  A
C929        H931   1.081       .  S
Cu932       N935   2.060       .  S
Cu933       N943   2.089       .  S
Cu934       N936   2.108       .  S
Cu934       N942   2.111       .  S
N935        C939   1.338       .  A
N935        N936   1.320       .  A
N936        C937   1.355       .  A
C937        C938   1.398       .  A
C937        H940   1.081       .  S
C938        C939   1.387       .  A
C938       C1432   1.498       .  S
C939        H941   1.080       .  S
N942        C946   1.353       .  A
N942        N943   1.328       .  A
N943        C944   1.343       .  A
C944        C945   1.379       .  A
C944        H947   1.082       .  S
C945        C946   1.388       .  A
C945       C1590   1.480       .  S
C946        H948   1.082       .  S
N949        C953   1.355       .  A
N949        N950   1.322       .  A
N949       Cu957   2.098       .  S
N950        C951   1.338       .  A
N950       Cu956   2.072       .  S
C951        C952   1.385       .  A
C951        H954   1.081       .  S
C952        C953   1.393       .  A
C952       C1459   1.490       .  S
C953        H955   1.082       .  S
Cu956       N959   2.074       .  S
Cu957       N967   2.100       .  S
Cu958       N960   2.092       .  S
Cu958       N966   2.095       .  S
N959        C963   1.344       .  A
N959        N960   1.319       .  A
N960        C961   1.351       .  A
C961        C962   1.394       .  A
C961        H964   1.081       .  S
C962        C963   1.390       .  A
C962       C1425   1.497       .  S
C963        H965   1.081       .  S
N966        C970   1.347       .  A
N966        N967   1.327       .  A
N967        C968   1.349       .  A
C968        C969   1.384       .  A
C968        H971   1.082       .  S
C969        C970   1.384       .  A
C969       C1586   1.482       .  S
C970        H972   1.082       .  S
N973        C977   1.352       .  A
N973        N974   1.318       .  A
N973       Cu981   2.091       .  S
N974        C975   1.340       .  A
N974       Cu980   2.059       .  S
C975        C976   1.386       .  A
C975        H978   1.081       .  S
C976        C977   1.395       .  A
C977        H979   1.082       .  S
Cu980       N983   2.059       .  S
Cu981       N991   2.094       .  S
Cu982       N984   2.120       .  S
Cu982       N990   2.123       .  S
N983        C987   1.339       .  A
N983        N984   1.321       .  A
N984        C985   1.358       .  A
C985        C986   1.399       .  A
C985        H988   1.081       .  S
C986        C987   1.385       .  A
C986       C1412   1.498       .  S
C987        H989   1.081       .  S
N990        C994   1.354       .  A
N990        N991   1.328       .  A
N991        C992   1.346       .  A
C992        C993   1.381       .  A
C992        H995   1.082       .  S
C993        C994   1.391       .  A
C993       C1494   1.486       .  S
C994        H996   1.082       .  S
N997       C1001   1.353       .  A
N997        N998   1.320       .  A
N997      Cu1005   2.096       .  S
N998        C999   1.339       .  A
N998      Cu1004   2.063       .  S
C999       C1000   1.385       .  A
C999       H1002   1.081       .  S
C1000      C1001   1.394       .  A
C1000      C1449   1.491       .  S
C1001      H1003   1.081       .  S
Cu1004     N1007   2.062       .  S
Cu1005     N1015   2.099       .  S
Cu1006     N1008   2.089       .  S
Cu1006     N1014   2.091       .  S
N1007      C1011   1.339       .  A
N1007      N1008   1.320       .  A
N1008      C1009   1.352       .  A
C1009      C1010   1.391       .  A
C1009      H1012   1.082       .  S
C1010      C1011   1.384       .  A
C1010      C1402   1.485       .  S
C1011      H1013   1.081       .  S
N1014      C1018   1.347       .  A
N1014      N1015   1.327       .  A
N1015      C1016   1.348       .  A
C1016      C1017   1.387       .  A
C1016      H1019   1.082       .  S
C1017      C1018   1.381       .  A
C1017      C1490   1.483       .  S
C1018      H1020   1.082       .  S
N1021      C1025   1.358       .  A
N1021      N1022   1.319       .  A
N1021     Cu1029   2.117       .  S
N1022      C1023   1.339       .  A
N1022     Cu1028   2.055       .  S
C1023      C1024   1.385       .  A
C1023      H1026   1.081       .  S
C1024      C1025   1.400       .  A
C1024      C1415   1.498       .  S
C1025      H1027   1.082       .  S
Cu1028     N1031   2.055       .  S
Cu1029     N1039   2.121       .  S
Cu1030     N1032   2.111       .  S
Cu1030     N1038   2.115       .  S
N1031      C1035   1.338       .  A
N1031      N1032   1.319       .  A
N1032      C1033   1.357       .  A
C1033      C1034   1.397       .  A
C1033      H1036   1.082       .  S
C1034      C1035   1.383       .  A
C1034      C1435   1.492       .  S
C1035      H1037   1.081       .  S
N1038      C1042   1.352       .  A
N1038      N1039   1.330       .  A
N1039      C1040   1.351       .  A
C1040      C1041   1.386       .  A
C1040      H1043   1.082       .  S
C1041      C1042   1.386       .  A
C1041      C1542   1.490       .  S
C1042      H1044   1.082       .  S
N1045      C1049   1.353       .  A
N1045      N1046   1.317       .  A
N1045     Cu1053   2.091       .  S
N1046      C1047   1.338       .  A
N1046     Cu1052   2.052       .  S
C1047      C1048   1.385       .  A
C1047      H1050   1.081       .  S
C1048      C1049   1.395       .  A
C1048      C1405   1.490       .  S
C1049      H1051   1.082       .  S
Cu1052     N1055   2.052       .  S
Cu1053     N1063   2.095       .  S
Cu1054     N1056   2.123       .  S
Cu1054     N1062   2.126       .  S
N1055      C1059   1.339       .  A
N1055      N1056   1.321       .  A
N1056      C1057   1.358       .  A
C1057      C1058   1.398       .  A
C1057      H1060   1.082       .  S
C1058      C1059   1.380       .  A
C1058      C1422   1.492       .  S
C1059      H1061   1.082       .  S
N1062      C1066   1.356       .  A
N1062      N1063   1.329       .  A
N1063      C1064   1.345       .  A
C1064      C1065   1.380       .  A
C1064      H1067   1.082       .  S
C1065      C1066   1.391       .  A
C1065      C1538   1.487       .  S
C1066      H1068   1.082       .  S
N1069      C1073   1.351       .  A
N1069      N1070   1.318       .  A
N1069     Cu1077   2.079       .  S
N1070      C1071   1.337       .  A
N1070     Cu1076   2.052       .  S
C1071      C1072   1.381       .  A
C1071      H1074   1.082       .  S
C1072      C1073   1.389       .  A
C1072      C1392   1.477       .  S
C1073      H1075   1.082       .  S
Cu1076     N1079   2.051       .  S
Cu1077     N1087   2.083       .  S
Cu1078     N1080   2.102       .  S
Cu1078     N1086   2.106       .  S
N1079      C1083   1.336       .  A
N1079      N1080   1.319       .  A
N1080      C1081   1.356       .  A
C1081      C1082   1.396       .  A
C1081      H1084   1.082       .  S
C1082      C1083   1.382       .  A
C1082      C1382   1.489       .  S
C1083      H1085   1.081       .  S
N1086      C1090   1.349       .  A
N1086      N1087   1.328       .  A
N1087      C1088   1.345       .  A
C1088      C1089   1.378       .  A
C1088      H1091   1.082       .  S
C1089      C1090   1.386       .  A
C1089      C1518   1.477       .  S
C1090      H1092   1.081       .  S
N1093      C1097   1.354       .  A
N1093      N1094   1.319       .  A
N1093     Cu1101   2.098       .  S
N1094      C1095   1.339       .  A
N1094     Cu1100   2.058       .  S
C1095      C1096   1.385       .  A
C1095      H1098   1.081       .  S
C1096      C1097   1.395       .  A
C1096      C1362   1.491       .  S
C1097      H1099   1.081       .  S
Cu1100     N1103   2.059       .  S
Cu1101     N1111   2.102       .  S
Cu1102     N1104   2.103       .  S
Cu1102     N1110   2.106       .  S
N1103      C1107   1.340       .  A
N1103      N1104   1.321       .  A
N1104      C1105   1.354       .  A
C1105      C1106   1.393       .  A
C1105      H1108   1.081       .  S
C1106      C1107   1.382       .  A
C1106      C1372   1.486       .  S
C1107      H1109   1.082       .  S
N1110      C1114   1.352       .  A
N1110      N1111   1.328       .  A
N1111      C1112   1.347       .  A
C1112      C1113   1.383       .  A
C1112      H1115   1.082       .  S
C1113      C1114   1.387       .  A
C1113      C1506   1.483       .  S
C1114      H1116   1.082       .  S
N1117      C1121   1.354       .  A
N1117      N1118   1.320       .  A
N1117     Cu1125   2.095       .  S
N1118      C1119   1.338       .  A
N1118     Cu1124   2.059       .  S
C1119      C1120   1.382       .  A
C1119      H1122   1.082       .  S
C1120      C1121   1.392       .  A
C1120      C1385   1.484       .  S
C1121      H1123   1.082       .  S
Cu1124     N1127   2.059       .  S
Cu1125     N1135   2.098       .  S
Cu1126     N1128   2.094       .  S
Cu1126     N1134   2.098       .  S
N1127      C1131   1.338       .  A
N1127      N1128   1.319       .  A
N1128      C1129   1.354       .  A
C1129      C1130   1.395       .  A
C1129      H1132   1.082       .  S
C1130      C1131   1.385       .  A
C1130      C1352   1.490       .  S
C1131      H1133   1.081       .  S
N1134      C1138   1.347       .  A
N1134      N1135   1.328       .  A
N1135      C1136   1.349       .  A
C1136      C1137   1.385       .  A
C1136      H1139   1.082       .  S
C1137      C1138   1.382       .  A
C1137      C1566   1.482       .  S
C1138      H1140   1.082       .  S
N1141      C1145   1.354       .  A
N1141      N1142   1.320       .  A
N1141     Cu1149   2.104       .  S
N1142      C1143   1.339       .  A
N1142     Cu1148   2.058       .  S
C1143      C1144   1.383       .  A
C1143      H1146   1.082       .  S
C1144      C1145   1.394       .  A
C1144      C1365   1.488       .  S
C1145      H1147   1.082       .  S
Cu1148     N1151   2.057       .  S
Cu1149     N1159   2.107       .  S
Cu1150     N1152   2.104       .  S
Cu1150     N1158   2.107       .  S
N1151      C1155   1.339       .  A
N1151      N1152   1.319       .  A
N1152      C1153   1.354       .  A
C1153      C1154   1.397       .  A
C1153      H1156   1.082       .  S
C1154      C1155   1.385       .  A
C1154      C1342   1.494       .  S
C1155      H1157   1.081       .  S
N1158      C1162   1.348       .  A
N1158      N1159   1.328       .  A
N1159      C1160   1.351       .  A
C1160      C1161   1.387       .  A
C1160      H1163   1.082       .  S
C1161      C1162   1.384       .  A
C1161      C1554   1.486       .  S
C1162      H1164   1.082       .  S
N1165      C1169   1.354       .  A
N1165      N1166   1.319       .  A
N1165     Cu1173   2.090       .  S
N1166      C1167   1.337       .  A
N1166     Cu1172   2.057       .  S
C1167      C1168   1.382       .  A
C1167      H1170   1.082       .  S
C1168      C1169   1.391       .  A
C1168      C1332   1.481   1_565  S
C1169      H1171   1.082       .  S
Cu1172     N1175   2.058       .  S
Cu1173     N1183   2.094       .  S
Cu1174     N1176   2.098       .  S
Cu1174     N1182   2.101       .  S
N1175      C1179   1.339       .  A
N1175      N1176   1.320       .  A
N1176      C1177   1.353       .  A
C1177      C1178   1.394       .  A
C1177      H1180   1.081       .  S
C1178      C1179   1.384       .  A
C1178      C1355   1.488       .  S
C1179      H1181   1.082       .  S
N1182      C1186   1.350       .  A
N1182      N1183   1.328       .  A
N1183      C1184   1.345       .  A
C1184      C1185   1.381       .  A
C1184      H1187   1.082       .  S
C1185      C1186   1.386       .  A
C1185      C1614   1.481       .  S
C1186      H1188   1.082       .  S
N1189      C1193   1.352       .  A
N1189      N1190   1.319       .  A
N1189     Cu1197   2.097       .  S
N1190      C1191   1.342       .  A
N1190     Cu1196   2.066       .  S
C1191      C1192   1.388       .  A
C1191      H1194   1.081       .  S
C1192      C1193   1.395       .  A
C1192      C1345   1.495       .  S
C1193      H1195   1.081       .  S
Cu1196     N1199   2.066       .  S
Cu1197     N1207   2.100       .  S
Cu1198     N1200   2.104       .  S
Cu1198     N1206   2.105       .  S
N1199      C1203   1.340       .  A
N1199      N1200   1.322       .  A
N1200      C1201   1.354       .  A
C1201      C1202   1.392       .  A
C1201      H1204   1.081       .  S
C1202      C1203   1.383       .  A
C1202      C1322   1.487       .  S
C1203      H1205   1.082       .  S
N1206      C1210   1.353       .  A
N1206      N1207   1.327       .  A
N1207      C1208   1.346       .  A
C1208      C1209   1.383       .  A
C1208      H1211   1.082       .  S
C1209      C1210   1.388       .  A
C1209      C1602   1.484       .  S
C1210      H1212   1.082       .  S
N1213      C1217   1.350       .  A
N1213      N1214   1.319       .  A
N1213     Cu1221   2.074       .  S
N1214      C1215   1.338       .  A
N1214     Cu1220   2.055       .  S
C1215      C1216   1.380       .  A
C1215      H1218   1.082       .  S
C1216      C1217   1.387       .  A
C1216      C1395   1.472       .  S
C1217      H1219   1.082       .  S
Cu1220     N1223   2.055       .  S
Cu1221     N1231   2.076       .  S
Cu1222     N1224   2.086       .  S
Cu1222     N1230   2.089       .  S
N1223      C1227   1.337       .  A
N1223      N1224   1.320       .  A
N1224      C1225   1.353       .  A
C1225      C1226   1.391       .  A
C1225      H1228   1.081       .  S
C1226      C1227   1.382       .  A
C1226      C1335   1.482       .  S
C1227      H1229   1.082       .  S
N1230      C1234   1.347       .  A
N1230      N1231   1.327       .  A
N1231      C1232   1.343       .  A
C1232      C1233   1.377       .  A
C1232      H1235   1.082       .  S
C1233      C1234   1.383       .  A
C1233      C1317   1.469       .  S
C1234      H1236   1.082       .  S
N1237      C1241   1.356       .  A
N1237      N1238   1.321       .  A
N1237     Cu1245   2.114       .  S
N1238      C1239   1.339       .  A
N1238     Cu1244   2.055       .  S
C1239      C1240   1.381       .  A
C1239      H1242   1.082       .  S
C1240      C1241   1.396       .  A
C1240      C1375   1.488       .  S
C1241      H1243   1.082       .  S
Cu1244     N1247   2.055       .  S
Cu1245     N1255   2.117       .  S
Cu1246     N1248   2.102       .  S
Cu1246     N1254   2.105       .  S
N1247      C1251   1.338       .  A
N1247      N1248   1.318       .  A
N1248      C1249   1.355       .  A
C1249      C1250   1.396       .  A
C1249      H1252   1.082       .  S
C1250      C1251   1.385       .  A
C1250      C1325   1.492       .  S
C1251      H1253   1.081       .  S
N1254      C1258   1.347       .  A
N1254      N1255   1.329       .  A
N1255      C1256   1.354       .  A
C1256      C1257   1.389       .  A
C1256      H1259   1.082       .  S
C1257      C1258   1.382       .  A
C1257      C1314   1.486       .  S
C1258      H1260   1.082       .  S
N1261      C1265   1.348       .  A
N1261      C1262   1.348       .  A
N1261      C1297   1.427       .  S
C1262      C1263   1.398       .  A
C1262      C1310   1.485       .  S
C1263      C1264   1.402       .  A
C1263      C1305   1.495       .  S
C1264      C1265   1.396       .  A
C1264      C1318   1.476       .  S
C1265      C1301   1.491       .  S
N1266      C1270   1.355       .  A
N1266      C1267   1.350       .  A
N1266      C1293   1.444       .  S
C1267      C1268   1.402       .  A
C1267      C1289   1.475       .  S
C1268      C1269   1.411       .  A
C1268      C1306   1.509       .  S
C1269      C1270   1.406       .  A
C1269      C1313   1.495       .  S
C1270      C1302   1.493       .  S
N1271      C1275   1.352       .  A
N1271      C1290   1.441       .  S
C1272      C1273   1.392       .  A
C1272      C1309   1.484       .  S
C1273      C1274   1.407       .  A
C1273      C1286   1.497       .  S
C1275      C1282   1.488       .  S
N1276      C1280   1.349       .  A
N1276      C1277   1.346       .  A
N1276      C1298   1.434       .  S
C1277      C1278   1.393       .  A
C1277      C1294   1.485       .  S
C1278      C1279   1.412       .  A
C1278      C1281   1.491       .  S
C1279      C1280   1.403       .  A
C1279      C1442   1.486       .  S
C1280      C1285   1.493       .  S
C1281      C1282   1.347       .  D
C1281      H1283   1.086       .  S
C1282      H1284   1.086       .  S
C1285      C1286   1.346       .  D
C1285      H1287   1.088       .  S
C1286      H1288   1.085       .  S
C1289      C1290   1.347       .  D
C1289      H1291   1.077       .  S
C1290      H1292   1.086       .  S
C1293      C1294   1.349       .  D
C1293      H1295   1.077       .  S
C1294      H1296   1.083       .  S
C1297      C1298   1.334       .  D
C1297      H1299   1.079       .  S
C1298      H1300   1.080       .  S
C1301      C1302   1.346       .  D
C1301      H1303   1.086       .  S
C1302      H1304   1.086       .  S
C1305      H1307   1.086       .  S
C1306      H1308   1.086   1_556  S
C1309      C1310   1.349       .  D
C1309      H1311   1.083       .  S
C1310      H1312   1.077       .  S
C1313      C1314   1.350       .  D
C1313      H1315   1.086       .  S
C1314      H1316   1.086       .  S
C1317      C1318   1.341       .  D
C1317      H1319   1.085       .  S
C1318      H1320   1.086       .  S
C1321      C1322   1.402   1_545  A
C1321      C1326   1.392       .  A
C1321      H1327   1.082       .  S
C1322      C1323   1.408   1_565  A
C1323      C1324   1.411       .  A
C1323      H1328   1.083   1_545  S
C1324      C1325   1.409       .  A
C1324      H1329   1.082       .  S
C1325      C1326   1.406       .  A
C1326      H1330   1.081       .  S
C1331      C1332   1.402       .  A
C1331      C1336   1.389       .  A
C1331      H1337   1.082       .  S
C1332      C1333   1.407       .  A
C1333      C1334   1.409       .  A
C1333      H1338   1.083       .  S
C1334      C1335   1.407       .  A
C1334      H1339   1.083       .  S
C1335      C1336   1.402       .  A
C1336      H1340   1.082       .  S
C1341      C1342   1.406       .  A
C1341      C1346   1.395       .  A
C1341      H1347   1.081       .  S
C1342      C1343   1.408       .  A
C1343      C1344   1.409       .  A
C1343      H1348   1.082       .  S
C1344      C1345   1.409   1_655  A
C1344      H1349   1.082   1_655  S
C1345      C1346   1.405   1_455  A
C1346      H1350   1.081   1_655  S
C1351      C1352   1.405       .  A
C1351      C1356   1.392       .  A
C1352      C1353   1.409       .  A
C1353      C1354   1.409       .  A
C1353      H1358   1.082       .  S
C1354      C1355   1.408   1_655  A
C1354      H1359   1.082   1_655  S
C1355      C1356   1.403   1_455  A
C1361      C1362   1.405       .  A
C1361      C1366   1.392       .  A
C1361      H1367   1.081       .  S
C1362      C1363   1.409       .  A
C1363      C1364   1.410       .  A
C1363      H1368   1.082       .  S
C1364      C1365   1.407   1_545  A
C1364      H1369   1.083   1_545  S
C1365      C1366   1.403   1_565  A
C1366      H1370   1.082   1_545  S
C1371      C1372   1.403       .  A
C1371      C1376   1.393       .  A
C1371      H1377   1.083       .  S
C1372      C1373   1.408       .  A
C1373      C1374   1.411       .  A
C1373      H1378   1.083       .  S
C1374      C1375   1.408   1_655  A
C1374      H1379   1.082   1_655  S
C1375      C1376   1.405   1_455  A
C1376      H1380   1.083   1_655  S
C1381      C1382   1.409       .  A
C1381      C1386   1.411       .  A
C1381      H1387   1.082       .  S
C1382      C1383   1.405       .  A
C1383      C1384   1.389       .  A
C1383      H1388   1.081       .  S
C1384      C1385   1.401   1_545  A
C1384      H1389   1.083   1_545  S
C1385      C1386   1.408   1_565  A
C1386      H1390   1.082   1_545  S
C1391      C1392   1.403       .  A
C1391      C1396   1.389       .  A
C1391      H1397   1.082       .  S
C1392      C1393   1.406       .  A
C1393      C1394   1.405       .  A
C1393      H1398   1.083       .  S
C1394      C1395   1.404   1_655  A
C1394      H1399   1.083   1_655  S
C1395      C1396   1.400   1_455  A
C1396      H1400   1.083   1_655  S
C1401      C1402   1.407       .  A
C1401      C1406   1.408       .  A
C1401      H1407   1.083       .  S
C1402      C1403   1.403       .  A
C1403      C1404   1.391       .  A
C1403      H1408   1.082       .  S
C1404      C1405   1.406       .  A
C1404      H1409   1.080       .  S
C1405      C1406   1.408       .  A
C1406      H1410   1.082       .  S
C1411      C1412   1.406       .  A
C1411      C1416   1.393       .  A
C1411      H1417   1.081       .  S
C1412      C1413   1.410       .  A
C1413      C1414   1.414       .  A
C1413      H1418   1.082       .  S
C1414      C1415   1.410       .  A
C1414      H1419   1.082       .  S
C1415      C1416   1.405       .  A
C1416      H1420   1.081       .  S
C1421      C1422   1.406       .  A
C1421      C1426   1.396       .  A
C1421      H1427   1.083       .  S
C1422      C1423   1.406       .  A
C1423      C1424   1.410       .  A
C1423      H1428   1.082       .  S
C1424      C1425   1.411       .  A
C1424      H1429   1.082       .  S
C1425      C1426   1.406       .  A
C1426      H1430   1.081       .  S
C1431      C1432   1.411       .  A
C1431      C1436   1.412       .  A
C1432      C1433   1.407       .  A
C1433      C1434   1.391       .  A
C1433      H1438   1.079       .  S
C1434      C1435   1.403       .  A
C1434      H1439   1.082       .  S
C1435      C1436   1.408       .  A
C1441      C1442   1.344       .  D
C1441      H1443   1.085       .  S
C1442      H1444   1.086       .  S
C1445      C1446   1.404       .  A
C1445      C1450   1.392       .  A
C1445      H1451   1.082       .  S
C1446      C1447   1.408       .  A
C1447      C1448   1.410       .  A
C1447      H1452   1.082       .  S
C1448      C1449   1.409       .  A
C1448      H1453   1.082       .  S
C1449      C1450   1.404       .  A
C1450      H1454   1.081       .  S
C1455      C1456   1.405       .  A
C1455      C1460   1.389       .  A
C1455      H1461   1.080       .  S
C1456      C1457   1.410       .  A
C1457      C1458   1.412       .  A
C1457      H1462   1.083       .  S
C1458      C1459   1.408       .  A
C1458      H1463   1.083       .  S
C1459      C1460   1.403       .  A
C1460      H1464   1.081       .  S
C1465      C1466   1.345       .  D
C1465      H1467   1.086       .  S
C1466      H1468   1.086   1_554  S
C1469      C1474   1.406       .  A
C1469      H1475   1.082       .  S
C1470      C1471   1.403   1_556  A
C1471      C1472   1.390       .  A
C1471      H1476   1.083       .  S
C1472      C1473   1.403   1_554  A
C1472      H1477   1.082       .  S
C1474      H1478   1.082       .  S
C1479      C1480   1.404       .  A
C1479      C1484   1.392       .  A
C1479      H1485   1.082       .  S
C1480      C1481   1.409       .  A
C1481      H1486   1.083   1_556  S
C1482      H1487   1.082       .  S
C1483      C1484   1.403       .  A
C1484      H1488   1.082       .  S
C1489      C1490   1.344       .  D
C1489      H1491   1.087       .  S
C1490      H1492   1.085       .  S
C1493      C1494   1.347       .  D
C1494      H1496   1.085       .  S
C1497      C1498   1.343       .  D
C1497      H1499   1.086       .  S
C1498      H1500   1.084       .  S
C1501      C1502   1.348       .  D
C1501      H1503   1.085       .  S
C1502      H1504   1.087       .  S
C1505      C1506   1.349       .  D
C1505      H1507   1.086       .  S
C1506      H1508   1.087       .  S
C1509      C1510   1.344       .  D
C1509      H1511   1.085       .  S
C1510      H1512   1.086       .  S
C1513      C1514   1.348       .  D
C1513      H1515   1.085       .  S
C1514      H1516   1.078       .  S
C1517      C1518   1.341       .  D
C1517      H1519   1.086       .  S
C1518      H1520   1.087       .  S
C1521      C1522   1.338       .  D
C1521      H1523   1.086       .  S
C1522      H1524   1.085       .  S
C1525      C1526   1.344       .  D
C1525      H1527   1.086       .  S
C1526      H1528   1.086       .  S
C1529      H1531   1.086       .  S
C1530      H1532   1.086       .  S
C1533      C1534   1.350       .  D
C1533      H1535   1.086       .  S
C1534      H1536   1.078       .  S
C1537      C1538   1.347       .  D
C1537      H1539   1.086       .  S
C1538      H1540   1.086       .  S
C1541      C1542   1.351       .  D
C1541      H1543   1.086       .  S
C1542      H1544   1.086       .  S
C1545      C1546   1.342       .  D
C1545      H1547   1.086       .  S
C1546      H1548   1.087       .  S
C1549      C1550   1.342       .  D
C1549      H1551   1.086       .  S
C1550      H1552   1.087       .  S
C1553      C1554   1.348       .  D
C1553      H1555   1.086       .  S
C1554      H1556   1.085       .  S
C1557      C1558   1.353       .  D
C1557      H1559   1.081       .  S
C1558      H1560   1.082       .  S
C1561      C1562   1.330       .  D
C1561      H1563   1.086       .  S
C1562      H1564   1.085       .  S
C1565      C1566   1.344       .  D
C1565      H1567   1.086       .  S
C1566      H1568   1.087       .  S
C1569      C1570   1.349       .  D
C1569      H1571   1.083       .  S
C1570      H1572   1.089       .  S
C1573      C1574   1.344       .  D
C1573      H1575   1.086       .  S
C1574      H1576   1.086       .  S
C1577      H1579   1.087       .  S
C1578      H1580   1.085       .  S
C1581      C1582   1.354       .  D
C1581      H1583   1.091       .  S
C1582      H1584   1.091       .  S
C1585      C1586   1.345       .  D
C1585      H1587   1.087       .  S
C1586      H1588   1.086       .  S
C1589      C1590   1.347       .  D
C1589      H1591   1.086       .  S
C1593      C1594   1.341       .  D
C1593      H1595   1.086       .  S
C1594      H1596   1.086       .  S
C1597      C1598   1.343       .  D
C1597      H1599   1.086       .  S
C1598      H1600   1.086       .  S
C1601      C1602   1.349       .  D
C1601      H1603   1.086       .  S
C1602      H1604   1.086       .  S
C1605      C1606   1.345       .  D
C1605      H1607   1.079       .  S
C1606      H1608   1.083       .  S
C1609      C1610   1.347       .  D
C1609      H1611   1.084       .  S
C1610      H1612   1.085       .  S
C1613      C1614   1.345       .  D
C1613      H1615   1.086       .  S
C1614      H1616   1.087       .  S
C1617      C1618   1.348       .  D
C1617      H1619   1.085       .  S
C1618      H1620   1.081       .  S
C1621      C1622   1.336       .  D
C1621      H1623   1.086       .  S
C1622      H1624   1.086       .  S
C1625      H1627   1.086       .  S
C1626      H1628   1.086       .  S
C1629      C1630   1.337       .  D
C1629      H1631   1.087       .  S
C1630      H1632   1.085       .  S
