geometry optimzed in LAMMPS
_audit_creation_date              2020-12-01 
_audit_creation_method            'lammps2cif' 
_symmetry_space_group_name_H-M    'P1' 
_symmetry_Int_Tables_number       1 
_symmetry_cell_setting            triclinic 
loop_ 
_symmetry_equiv_pos_as_xyz 
  x,y,z 
_cell_length_a                    41.79629923 
_cell_length_b                    52.59658245887301 
_cell_length_c                    26.2671498984992 
_cell_angle_alpha                 90.5620534091233 
_cell_angle_beta                  90.20689176138606 
_cell_angle_gamma                 90.13258818206727 
loop_ 
_atom_site_label 
_atom_site_type_symbol 
_atom_site_fract_x 
_atom_site_fract_y 
_atom_site_fract_z 
_atom_site_charge 
In1        In  0.82329972  0.14605595  0.71318449     1.36900
C2          C  0.86665265  0.15433242  0.78660423     0.78300
O3          O  0.80917065  0.18674699  0.70271925    -0.60200
O4          O  0.77442163  0.16138764  0.73147111    -0.51100
C5          C  0.83341749  0.14531354  0.61295533     0.70900
O6          O  0.85170370  0.15695316  0.64366880    -0.46000
C7          C  0.81155329  0.09704227  0.73090472     0.75600
O8          O  0.87408899  0.14927449  0.74116297    -0.57800
O9          O  0.79041848  0.11395284  0.73607257    -0.47900
O10         O  0.83696570  0.15649263  0.79370632    -0.54200
C11         C  0.78065092  0.18364516  0.71681788     0.85800
O12         O  0.80999258  0.13456148  0.63372201    -0.56100
O13         O  0.83845738  0.10551224  0.71768044    -0.59400
In14       In  0.82601995  0.85720180  0.70339688     1.36900
C15         C  0.81529079  0.90706511  0.71377142     0.78300
O16         O  0.83717553  0.84751935  0.78454456    -0.60200
O17         O  0.87583745  0.85406963  0.73470276    -0.51100
C18         C  0.78074571  0.82216511  0.71022366     0.70900
O19         O  0.77488707  0.84566458  0.71067187    -0.46000
C20         C  0.83834818  0.85030315  0.60484043     0.75600
O21         O  0.79801989  0.89064683  0.73501675    -0.57800
O22         O  0.85876463  0.84550911  0.63890854    -0.47900
O23         O  0.83820412  0.89778537  0.68905460    -0.54200
C24         C  0.86704244  0.84881736  0.77924402     0.85800
O25         O  0.81005078  0.81658323  0.70712192    -0.56100
O26         O  0.81189273  0.85811212  0.62158351    -0.59400
In27       In  0.07241816  0.14276819  0.71271608     1.36900
C28         C  0.07610265  0.09276591  0.72704731     0.78300
O29         O  0.05971283  0.15055517  0.79394913    -0.60200
O30         O  0.02209949  0.14867825  0.73987259    -0.51100
C31         C  0.11776717  0.17792082  0.72419080     0.70900
O32         O  0.12399512  0.15447651  0.72037174    -0.46000
C33         C  0.06513974  0.14688982  0.61253130     0.75600
O34         O  0.09603630  0.10825699  0.74602547    -0.57800
O35         O  0.04519604  0.15606652  0.64370060    -0.47900
O36         O  0.05481695  0.10313685  0.70037288    -0.54200
C37         C  0.02995955  0.15117868  0.78614994     0.85800
O38         O  0.08835108  0.18312427  0.72267381    -0.56100
O39         O  0.08874051  0.13616813  0.63313945    -0.59400
In40       In  0.07067586  0.85190834  0.70952841     1.36900
C41         C  0.02880652  0.84241586  0.78277400     0.78300
O42         O  0.08853999  0.81205605  0.70855921    -0.60200
O43         O  0.12133592  0.84109511  0.72912142    -0.51100
C44         C  0.05974961  0.84682712  0.60946615     0.70900
O45         O  0.04497456  0.83409734  0.64224442    -0.46000
C46         C  0.07546258  0.90159699  0.72896304     0.75600
O47         O  0.02069970  0.84740158  0.73766246    -0.57800
O48         O  0.09977643  0.88737536  0.72661477    -0.47900
O49         O  0.05862987  0.84116431  0.78965586    -0.54200
C50         C  0.11678245  0.81762174  0.72158092     0.85800
O51         O  0.07957408  0.86242157  0.62821780    -0.56100
O52         O  0.04940056  0.89035161  0.72031019    -0.59400
In53       In  0.82666636  0.14224020  0.12974059     1.36900
C54         C  0.81471168  0.09280215  0.11764237     0.78300
O55         O  0.83847367  0.14887943  0.04766311    -0.60200
O56         O  0.87662500  0.14648431  0.10044876    -0.51100
C57         C  0.78730459  0.18120364  0.12118587     0.70900
O58         O  0.77752012  0.15846494  0.12262337    -0.46000
C59         C  0.83459708  0.14717676  0.23028203     0.75600
O60         O  0.79758578  0.10946441  0.09670394    -0.57800
O61         O  0.85772606  0.14931303  0.19964753    -0.47900
O62         O  0.83775730  0.10157363  0.14318666    -0.54200
C63         C  0.86830977  0.14931588  0.05456204     0.85800
O64         O  0.81727726  0.18388434  0.12346853    -0.56100
O65         O  0.80816783  0.14246016  0.20910657    -0.59400
In66       In  0.82410877  0.85262091  0.12448095     1.36900
C67         C  0.86469010  0.84465817  0.04785194     0.78300
O68         O  0.81130207  0.81133489  0.13258506    -0.60200
O69         O  0.77552840  0.83613938  0.10546929    -0.51100
C70         C  0.83865710  0.85191971  0.22372178     0.70900
O71         O  0.85556681  0.84108649  0.19037629    -0.46000
C72         C  0.81317980  0.90216613  0.10950673     0.75600
O73         O  0.87346575  0.84813696  0.09340046    -0.57800
O74         O  0.79079859  0.88614329  0.11351059    -0.47900
O75         O  0.83473746  0.84461407  0.04172399    -0.54200
C76         C  0.78277990  0.81372416  0.11788322     0.85800
O77         O  0.81466755  0.86333902  0.20599620    -0.56100
O78         O  0.84062796  0.89244502  0.11276782    -0.59400
In79       In  0.07263909  0.13704608  0.12861394     1.36900
C80         C  0.03056765  0.14611508  0.05392645     0.78300
O81         O  0.08963997  0.17733595  0.13329604    -0.60200
O82         O  0.12299150  0.14906257  0.11200742    -0.51100
C83         C  0.06358442  0.14012995  0.22909948     0.70900
O84         O  0.04679208  0.15233454  0.19775063    -0.46000
C85         C  0.08164105  0.08773426  0.11279171     0.75600
O86         O  0.02241263  0.14114671  0.09895881    -0.57800
O87         O  0.10359889  0.10391126  0.10684954    -0.47900
O88         O  0.06040943  0.14699208  0.04752925    -0.54200
C89         C  0.11816201  0.17228955  0.12130803     0.85800
O90         O  0.08425819  0.12594888  0.20891716    -0.56100
O91         O  0.05504020  0.09707461  0.12546756    -0.59400
In92       In  0.06824767  0.84727900  0.12689666     1.36900
C93         C  0.07694322  0.89734648  0.12228765     0.78300
O94         O  0.05632994  0.83965909  0.04493827    -0.60200
O95         O  0.01806026  0.84402820  0.09657412    -0.51100
C96         C  0.11163528  0.81121153  0.11555714     0.70900
O97         O  0.11818936  0.83454101  0.11144018    -0.46000
C98         C  0.06033248  0.84121064  0.22627077     0.75600
O99         O  0.09603179  0.88177630  0.10180609    -0.57800
O100        O  0.03921216  0.83470714  0.19413097    -0.47900
O101        O  0.05333818  0.88711726  0.14341434    -0.54200
C102        C  0.02649322  0.84051236  0.05098650     0.85800
O103        O  0.08247981  0.80638845  0.12355097    -0.56100
O104        O  0.08553018  0.85010403  0.20707871    -0.59400
N105        N  0.94742286  0.84157555  0.83833628    -0.35900
N106        N  0.99653542  0.83677537  0.91585104    -0.56500
N107        N  0.94579022  0.83964067  0.99120459    -0.35900
N108        N  0.89664396  0.84107738  0.91363937    -0.56500
C109        C  0.97306985  0.83348254  0.81152751     0.27700
C110        C  0.92114031  0.83615374  0.81014770     0.27700
C111        C  0.97126549  0.83151106  0.01835259     0.27700
C112        C  0.91921213  0.83292650  0.01706815     0.27700
C113        C  0.01400926  0.84424205  0.87544669     0.36300
C114        C  0.01304116  0.84397865  0.95791643     0.36300
C115        C  0.88068203  0.84978849  0.87255521     0.36300
C116        C  0.87958043  0.84811978  0.95506073     0.36300
C117        C  0.96291226  0.82197116  0.76655516    -0.21200
C118        C  0.93007679  0.82369403  0.76564455    -0.21200
C119        C  0.96078799  0.81866137  0.06102284    -0.21200
C120        C  0.92788969  0.81950610  0.06016364    -0.21200
C121        C  0.04168226  0.85641447  0.89189268    -0.22300
C122        C  0.04102581  0.85631448  0.94413994    -0.22300
C123        C  0.85339636  0.86265893  0.88795114    -0.22300
C124        C  0.85267312  0.86157215  0.94023372    -0.22300
C125        C  0.00508645  0.83935109  0.82435900    -0.17600
C126        C  0.88999739  0.84474707  0.82173156    -0.17600
C127        C  0.88799823  0.84145707  0.00542029    -0.17600
C128        C  0.00328311  0.83828863  0.00801930    -0.17600
H129        H  0.97757495  0.81358083  0.73700284     0.15300
H130        H  0.91465670  0.81683499  0.73529127     0.15300
H131        H  0.97525511  0.80990468  0.09021385     0.15300
H132        H  0.91224914  0.81150998  0.08860450     0.15300
H133        H  0.06006597  0.86522294  0.86918272     0.13600
H134        H  0.05882838  0.86504762  0.96864321     0.13600
H135        H  0.83601205  0.87226787  0.86445084     0.13600
H136        H  0.83466860  0.87024333  0.96415125     0.13600
H137        H  0.94808976  0.85341173  0.87039984     0.26800
H138        H  0.94668641  0.85229669  0.96093690     0.26800
N139        N  0.94855180  0.15550550  0.84345680    -0.35900
N140        N  0.99892989  0.15433683  0.92044031    -0.56500
N141        N  0.94929633  0.15209263  0.99694293    -0.35900
N142        N  0.89895277  0.15665685  0.92060235    -0.56500
C143        C  0.97481351  0.16207258  0.81665312     0.27700
C144        C  0.92264595  0.16316275  0.81670832     0.27700
C145        C  0.97565419  0.15810097  0.02455859     0.27700
C146        C  0.92360793  0.15939354  0.02448513     0.27700
C147        C  0.01489915  0.14677038  0.87828229     0.36300
C148        C  0.01536290  0.14526828  0.96085623     0.36300
C149        C  0.88202228  0.14985316  0.87863679     0.36300
C150        C  0.88249890  0.14794430  0.96115307     0.36300
C151        C  0.96550142  0.17490586  0.77312393    -0.21200
C152        C  0.93254238  0.17551223  0.77308983    -0.21200
C153        C  0.96670916  0.17019937  0.06938181    -0.21200
C154        C  0.93381174  0.17111737  0.06925665    -0.21200
C155        C  0.04140276  0.13250858  0.89209628    -0.22300
C156        C  0.04174192  0.13164176  0.94438126    -0.22300
C157        C  0.85484304  0.13649539  0.89251555    -0.22300
C158        C  0.85514958  0.13526139  0.94476066    -0.22300
C159        C  0.00621798  0.15381201  0.82811773    -0.17600
C160        C  0.89075613  0.15641878  0.82844794    -0.17600
C161        C  0.89174105  0.15257539  0.01236572    -0.17600
C162        C  0.00692691  0.15019543  0.01209389    -0.17600
H163        H  0.98069547  0.18267857  0.74385391     0.15300
H164        H  0.91765063  0.18372747  0.74378976     0.15300
H165        H  0.98216556  0.17735528  0.09941184     0.15300
H166        H  0.91921961  0.17921193  0.09919710     0.15300
H167        H  0.05839728  0.12306602  0.86749881     0.13600
H168        H  0.05901350  0.12152225  0.96722649     0.13600
H169        H  0.83704050  0.12783928  0.86786081     0.13600
H170        H  0.83759153  0.12544868  0.96746715     0.13600
H171        H  0.94820977  0.14323202  0.87434802     0.26800
H172        H  0.94872120  0.14035809  0.96472530     0.26800
In173      In  0.56803266  0.35637612  0.70275501     1.36900
C174        C  0.52882200  0.34670777  0.77991663     0.78300
O175        O  0.58154139  0.31572315  0.69386746    -0.60200
O176        O  0.61710633  0.34188705  0.71882505    -0.51100
C177        C  0.55826579  0.35480888  0.60262653     0.70900
O178        O  0.53869830  0.34520093  0.63363396    -0.46000
C179        C  0.57794982  0.40565336  0.71936213     0.75600
O180        O  0.51901234  0.35189649  0.73569773    -0.57800
O181        O  0.59918892  0.38914617  0.72710847    -0.47900
O182        O  0.55879912  0.34597290  0.78408010    -0.54200
C183        C  0.61023327  0.31914337  0.70718538     0.85800
O184        O  0.58239787  0.36490073  0.62332948    -0.56100
O185        O  0.55179798  0.39659984  0.70329434    -0.59400
In186      In  0.57246831  0.64566863  0.71626068     1.36900
C187        C  0.58272952  0.59584747  0.72410675     0.78300
O188        O  0.56019938  0.65463862  0.79800865    -0.60200
O189        O  0.52244499  0.64827890  0.74567428    -0.51100
C190        C  0.61764372  0.68123221  0.72125115     0.70900
O191        O  0.62385447  0.65777538  0.72030473    -0.46000
C192        C  0.55762090  0.65239764  0.61878306     0.75600
O193        O  0.59649988  0.61173502  0.75304782    -0.57800
O194        O  0.53799430  0.65671913  0.65426407    -0.47900
O195        O  0.56392546  0.60554375  0.69248794    -0.54200
C196        C  0.53041601  0.65316572  0.79106145     0.85800
O197        O  0.58817078  0.68637490  0.72142771    -0.56100
O198        O  0.58489062  0.64525193  0.63350891    -0.59400
In199      In  0.32788926  0.35275582  0.70666079     1.36900
C200        C  0.32027643  0.40261222  0.72122115     0.78300
O201        O  0.33892969  0.34339034  0.78766329    -0.60200
O202        O  0.37759783  0.34873604  0.73706510    -0.51100
C203        C  0.28513758  0.31583871  0.71564464     0.70900
O204        O  0.27739827  0.33905274  0.71687367    -0.46000
C205        C  0.33830088  0.34924683  0.60684427     0.75600
O206        O  0.29942012  0.38665594  0.73464113    -0.57800
O207        O  0.35741393  0.34021319  0.63919811    -0.47900
O208        O  0.34477800  0.39277231  0.70153456    -0.54200
C209        C  0.36880935  0.34410627  0.78194674     0.85800
O210        O  0.31451433  0.31176511  0.70886452    -0.56100
O211        O  0.31385949  0.35941977  0.62621300    -0.59400
In212      In  0.32870978  0.64371045  0.70466845     1.36900
C213        C  0.36890509  0.65405371  0.78125103     0.78300
O214        O  0.31140192  0.68373282  0.69647049    -0.60200
O215        O  0.27995680  0.65673771  0.72891395    -0.51100
C216        C  0.33785852  0.64778281  0.60443687     0.70900
O217        O  0.35712065  0.65712171  0.63669433    -0.46000
C218        C  0.32209900  0.59385556  0.72016814     0.75600
O219        O  0.37825120  0.64894982  0.73664893    -0.57800
O220        O  0.29844205  0.60873965  0.71902057    -0.47900
O221        O  0.33893462  0.65500417  0.78575164    -0.54200
C222        C  0.28421098  0.67945943  0.71534500     0.85800
O223        O  0.31498302  0.63567090  0.62393652    -0.56100
O224        O  0.34853819  0.60453792  0.71223016    -0.59400
In225      In  0.32648376  0.35025566  0.12624208     1.36900
C226        C  0.36852622  0.34228434  0.05089227     0.78300
O227        O  0.31055044  0.30967602  0.13131255    -0.60200
O228        O  0.27591287  0.33718410  0.11108109    -0.51100
C229        C  0.33752966  0.34688389  0.22521875     0.70900
O230        O  0.35691829  0.33836578  0.19250153    -0.46000
C231        C  0.31891402  0.40027863  0.11654181     0.75600
O232        O  0.37664181  0.34512224  0.09683851    -0.57800
O233        O  0.29967905  0.38445732  0.09685405    -0.47900
O234        O  0.33869218  0.34238457  0.04415850    -0.54200
C235        C  0.28177542  0.31411246  0.11988716     0.85800
O236        O  0.31245845  0.35674599  0.20736347    -0.56100
O237        O  0.34153522  0.39035179  0.14093889    -0.59400
In238      In  0.32369231  0.64073904  0.12360210     1.36900
C239        C  0.31866099  0.59117511  0.10749367     0.78300
O240        O  0.33496943  0.65153514  0.04335794    -0.60200
O241        O  0.37339041  0.64635042  0.09501523    -0.51100
C242        C  0.27477591  0.67182380  0.11438717     0.70900
O243        O  0.27115520  0.64810532  0.11776467    -0.46000
C244        C  0.33430773  0.64632641  0.22298378     0.75600
O245        O  0.29605849  0.60630803  0.09824548    -0.57800
O246        O  0.34764952  0.66038958  0.19076123    -0.47900
O247        O  0.34418344  0.60166020  0.12255264    -0.54200
C248        C  0.36483252  0.65152422  0.05017328     0.85800
O249        O  0.30338999  0.67943416  0.11463107    -0.56100
O250        O  0.31563257  0.63000093  0.20423920    -0.59400
In251      In  0.57464660  0.35254920  0.12460402     1.36900
C252        C  0.58505148  0.40278141  0.12106221     0.78300
O253        O  0.56170272  0.34376203  0.04293425    -0.60200
O254        O  0.52410150  0.34975932  0.09492635    -0.51100
C255        C  0.61925760  0.31748713  0.11245224     0.70900
O256        O  0.62523062  0.34100942  0.11047980    -0.46000
C257        C  0.56456684  0.34431593  0.22315663     0.75600
O258        O  0.60260372  0.38705668  0.09798221    -0.57800
O259        O  0.54335068  0.34034764  0.18968743    -0.47900
O260        O  0.56208680  0.39254158  0.14400462    -0.54200
C261        C  0.53193104  0.34512132  0.04950408     0.85800
O262        O  0.59022080  0.31211395  0.11972416    -0.56100
O263        O  0.59095219  0.35199862  0.20609481    -0.59400
In264      In  0.56528071  0.64347968  0.13878822     1.36900
C265        C  0.52535342  0.65155389  0.06049933     0.78300
O266        O  0.58226002  0.68369034  0.14575716    -0.60200
O267        O  0.61391250  0.65677232  0.11390808    -0.51100
C268        C  0.55101386  0.64807098  0.23801513     0.70900
O269        O  0.53446148  0.65836106  0.20369999    -0.46000
C270        C  0.57689937  0.59372528  0.12900441     0.75600
O271        O  0.51583077  0.64685414  0.10500705    -0.57800
O272        O  0.59900860  0.60987214  0.13489444    -0.47900
O273        O  0.55535855  0.65232129  0.05645047    -0.54200
C274        C  0.60948559  0.67965368  0.12702398     0.85800
O275        O  0.57448687  0.63568025  0.22109920    -0.56100
O276        O  0.54928482  0.60321911  0.12827620    -0.59400
N277        N  0.45001492  0.34117312  0.99282505    -0.35900
N278        N  0.49984387  0.34000583  0.91538813    -0.56500
N279        N  0.44940198  0.34052247  0.83982983    -0.35900
N280        N  0.39969448  0.33828734  0.91638919    -0.56500
C281        C  0.47646702  0.33450141  0.01939658     0.27700
C282        C  0.42425588  0.33343162  0.01980756     0.27700
C283        C  0.47535941  0.33395771  0.81226073     0.27700
C284        C  0.42341210  0.33311568  0.81278751     0.27700
C285        C  0.51697494  0.34745723  0.95667714     0.36300
C286        C  0.51648479  0.34743682  0.87399854     0.36300
C287        C  0.38273428  0.34537907  0.95786750     0.36300
C288        C  0.38261663  0.34560588  0.87526726     0.36300
C289        C  0.46745145  0.32165068  0.06290864    -0.21200
C290        C  0.43451786  0.32092394  0.06311568    -0.21200
C291        C  0.46583849  0.32129045  0.76818013    -0.21200
C292        C  0.43295569  0.32075186  0.76850949    -0.21200
C293        C  0.54467828  0.35976185  0.94142555    -0.22300
C294        C  0.54435685  0.35976175  0.88909276    -0.22300
C295        C  0.35477244  0.35740414  0.94292348    -0.22300
C296        C  0.35473348  0.35760064  0.89068613    -0.22300
C297        C  0.50807004  0.34209976  0.00742311    -0.17600
C298        C  0.39214562  0.33994623  0.00844321    -0.17600
C299        C  0.39184328  0.34045784  0.82447145    -0.17600
C300        C  0.50673355  0.34225521  0.82325962    -0.17600
H301        H  0.48292820  0.31374419  0.09178706     0.15300
H302        H  0.41990983  0.31229050  0.09216455     0.15300
H303        H  0.48093857  0.31375705  0.73827004     0.15300
H304        H  0.41786459  0.31270744  0.73888922     0.15300
H305        H  0.56295623  0.36848699  0.96504059     0.13600
H306        H  0.56235283  0.36845489  0.86544720     0.13600
H307        H  0.33652306  0.36587849  0.96654501     0.13600
H308        H  0.33648045  0.36626248  0.86739466     0.13600
H309        H  0.44953200  0.35335670  0.96176199     0.26800
H310        H  0.44930764  0.35285787  0.87114446     0.26800
N311        N  0.44596187  0.65733275  0.99687407    -0.35900
N312        N  0.49735202  0.65844043  0.92425646    -0.56500
N313        N  0.44852368  0.65785764  0.84442087    -0.35900
N314        N  0.39688719  0.66001872  0.91745459    -0.56500
C315        C  0.47142526  0.66352369  0.02643124     0.27700
C316        C  0.41941080  0.66436300  0.02248161     0.27700
C317        C  0.47529627  0.66448617  0.81906197     0.27700
C318        C  0.42325075  0.66489152  0.81550912     0.27700
C319        C  0.51317865  0.65038455  0.96614327     0.36300
C320        C  0.51466486  0.65088211  0.88346281     0.36300
C321        C  0.37982407  0.65156831  0.95751694     0.36300
C322        C  0.38114281  0.65219204  0.87502569     0.36300
C323        C  0.46099356  0.67566656  0.07042684    -0.21200
C324        C  0.42809182  0.67621965  0.06790180    -0.21200
C325        C  0.46691218  0.67676222  0.77442393    -0.21200
C326        C  0.43402143  0.67695260  0.77213332    -0.21200
C327        C  0.54067782  0.63751762  0.95184149    -0.22300
C328        C  0.54163199  0.63785033  0.89949340    -0.22300
C329        C  0.35314328  0.63821923  0.94043163    -0.22300
C330        C  0.35394817  0.63866570  0.88816947    -0.22300
C331        C  0.50307407  0.65548783  0.01665771    -0.17600
C332        C  0.38817327  0.65652727  0.00889884    -0.17600
C333        C  0.39130011  0.65767697  0.82502783    -0.17600
C334        C  0.50651325  0.65660667  0.83245174    -0.17600
H335        H  0.47543073  0.68283692  0.10170497     0.15300
H336        H  0.41238174  0.68376970  0.09697990     0.15300
H337        H  0.48276375  0.68432275  0.74580094     0.15300
H338        H  0.41976490  0.68465042  0.74149386     0.15300
H339        H  0.55794118  0.62823338  0.97606709     0.13600
H340        H  0.55977825  0.62889380  0.87626209     0.13600
H341        H  0.33540867  0.62837416  0.96273468     0.13600
H342        H  0.33698654  0.62923454  0.86315984     0.13600
H343        H  0.44638532  0.64533835  0.96507209     0.26800
H344        H  0.44761713  0.64581515  0.87564561     0.26800
C345        C  0.56741662  0.52323552  0.09765287    -0.11200
C346        C  0.59232362  0.51277883  0.12629114     0.11400
C347        C  0.61472292  0.52904228  0.15079739    -0.03000
C348        C  0.60936748  0.55552469  0.14978398    -0.05700
C349        C  0.58272252  0.56592411  0.12453373    -0.16500
C350        C  0.56210800  0.54955961  0.09620386     0.02400
C351        C  0.59344233  0.48461914  0.12973982     0.12400
C352        C  0.64384247  0.51845024  0.17801443     0.63000
H353        H  0.62549530  0.56826029  0.16996907     0.12400
C354        C  0.53465056  0.55957289  0.06416396     0.55100
H355        H  0.55134063  0.51035239  0.07768429     0.08200
C356        C  0.57184698  0.47119740  0.16098204    -0.05600
C357        C  0.57070253  0.44462044  0.15702429    -0.06400
C358        C  0.59022345  0.43086604  0.12306494    -0.15900
C359        C  0.61299919  0.44432358  0.09335027    -0.01500
C360        C  0.61370762  0.47112539  0.09678924    -0.09100
C361        C  0.54959888  0.48483308  0.19788566     0.65200
H362        H  0.55383942  0.43436386  0.18034053     0.10600
C363        C  0.63589242  0.43097992  0.05718588     0.63600
H364        H  0.62947615  0.48193480  0.07252456     0.08000
F365        F  0.51031746  0.56802969  0.09552568    -0.19500
F366        F  0.52216955  0.54094709  0.03216059    -0.15700
F367        F  0.54520143  0.57932008  0.03405684    -0.19200
F368        F  0.66223536  0.50455136  0.14416344    -0.22600
F369        F  0.63431309  0.50283062  0.21719093    -0.24000
F370        F  0.66294034  0.53757232  0.19836623    -0.18000
F371        F  0.65681769  0.44789393  0.03458177    -0.20500
F372        F  0.61875659  0.41876655  0.01898793    -0.21700
F373        F  0.65413889  0.41349992  0.08338029    -0.18900
F374        F  0.53240111  0.46794413  0.22734650    -0.19000
F375        F  0.52790582  0.49947235  0.17139253    -0.22800
F376        F  0.56719079  0.50031007  0.23034932    -0.24400
C377        C  0.30572400  0.46749919  0.06757861    -0.11200
C378        C  0.31668779  0.48179590  0.10941571     0.11400
C379        C  0.32575948  0.46944931  0.15479222    -0.03000
C380        C  0.32595358  0.44275765  0.15521620    -0.05700
C381        C  0.31574827  0.42825061  0.11293473    -0.16500
C382        C  0.30460375  0.44076794  0.06868352     0.02400
C383        C  0.31699518  0.50981480  0.10525269     0.12400
C384        C  0.33429152  0.48436883  0.20286553     0.63000
H385        H  0.33363898  0.43292294  0.18915865     0.12400
C386        C  0.29218306  0.42618186  0.02256107     0.55100
H387        H  0.29797111  0.47759189  0.03398668     0.08200
C388        C  0.34352268  0.52315982  0.08537979    -0.05600
C389        C  0.34259448  0.54984946  0.08525512    -0.06400
C390        C  0.31581364  0.56328431  0.10295312    -0.15900
C391        C  0.28860495  0.54980409  0.12040163    -0.01500
C392        C  0.28976994  0.52311202  0.12117399    -0.09100
C393        C  0.37259852  0.50930255  0.06451667     0.65200
H394        H  0.36298830  0.56053179  0.07166763     0.10600
C395        C  0.25897346  0.56338796  0.13988681     0.63600
H396        H  0.26957778  0.51228461  0.13504124     0.08000
F397        F  0.28442607  0.44217807  0.98283597    -0.19500
F398        F  0.26486778  0.41288545  0.03551318    -0.15700
F399        F  0.31526632  0.40941075  0.00543160    -0.19200
F400        F  0.30806081  0.49825962  0.21876395    -0.22600
F401        F  0.35937692  0.50083224  0.19371672    -0.24000
F402        F  0.34324512  0.46854378  0.24223706    -0.18000
F403        F  0.24485765  0.57670096  0.10065467    -0.20500
F404        F  0.26722542  0.58004837  0.17888051    -0.21700
F405        F  0.23648862  0.54654530  0.15858133    -0.18900
F406        F  0.39557348  0.52603125  0.04687075    -0.19000
F407        F  0.36349953  0.49364802  0.02442202    -0.22800
F408        F  0.38642641  0.49471497  0.10207116    -0.24400
C409        C  0.34534421  0.63035795  0.36206380    -0.11200
C410        C  0.34160317  0.65433400  0.38484448     0.11400
C411        C  0.33981213  0.67626284  0.35418733    -0.03000
C412        C  0.33805681  0.67303935  0.30094474    -0.05700
C413        C  0.33945955  0.64877330  0.27833556    -0.16500
C414        C  0.34494380  0.62720575  0.30899628     0.02400
C415        C  0.33989046  0.65538824  0.44110069     0.12400
C416        C  0.34053387  0.70276092  0.37759558     0.63000
H417        H  0.33506678  0.68938062  0.27662195     0.12400
C418        C  0.35188587  0.60122420  0.28582137     0.55100
H419        H  0.34814279  0.61400965  0.38645143     0.08200
C420        C  0.31093947  0.65059115  0.46695924    -0.05600
C421        C  0.31164450  0.64873790  0.52022351    -0.06400
C422        C  0.34021558  0.65129465  0.54836148    -0.15900
C423        C  0.36919497  0.65657540  0.52219493    -0.01500
C424        C  0.36840602  0.65833975  0.46869407    -0.09100
C425        C  0.27954374  0.64686441  0.43829798     0.65200
H426        H  0.28961128  0.64499598  0.54038506     0.10600
C427        C  0.40097001  0.65960060  0.54974440     0.63600
H428        H  0.39023132  0.66154636  0.44757789     0.08000
F429        F  0.32465406  0.59127845  0.26316658    -0.19500
F430        F  0.36225657  0.58419177  0.32215451    -0.15700
F431        F  0.37574278  0.60342359  0.24971739    -0.19200
F432        F  0.36877104  0.70610128  0.40443016    -0.22600
F433        F  0.31509333  0.70606030  0.41041355    -0.24000
F434        F  0.33890048  0.72142161  0.34086772    -0.18000
F435        F  0.42611360  0.66276576  0.51615065    -0.20500
F436        F  0.40710028  0.63819996  0.57831682    -0.21700
F437        F  0.40007028  0.68078923  0.58124580    -0.18900
F438        F  0.25406104  0.64328469  0.47101556    -0.19000
F439        F  0.28150908  0.62575307  0.40673443    -0.22800
F440        F  0.27301854  0.66796894  0.40916463    -0.24400
C441        C  0.37396993  0.34234972  0.47282987    -0.11200
C442        C  0.34728077  0.34881187  0.44319095     0.11400
C443        C  0.31803676  0.35499387  0.46711352    -0.03000
C444        C  0.31661868  0.35483471  0.52038839    -0.05700
C445        C  0.34312942  0.34835381  0.55067308    -0.16500
C446        C  0.37255791  0.34202439  0.52652415     0.02400
C447        C  0.34969159  0.34759111  0.38691458     0.12400
C448        C  0.28814839  0.36126348  0.43650042     0.63000
H449        H  0.29424057  0.35946453  0.53883736     0.12400
C450        C  0.40236258  0.33507655  0.55658714     0.55100
H451        H  0.39587284  0.33731104  0.45331455     0.08200
C452        C  0.36009684  0.36856957  0.35784314    -0.05600
C453        C  0.35654952  0.36738258  0.30455070    -0.06400
C454        C  0.34363405  0.34581461  0.28029495    -0.15900
C455        C  0.33525189  0.32428365  0.30905861    -0.01500
C456        C  0.33870629  0.32545358  0.36225268    -0.09100
C457        C  0.37454630  0.39205385  0.38305434     0.65200
H458        H  0.36321740  0.38347397  0.28140725     0.10600
C459        C  0.32166149  0.30062913  0.28353023     0.63600
H460        H  0.33139497  0.30952056  0.38534045     0.08000
F461        F  0.41009205  0.35451821  0.59032438    -0.19500
F462        F  0.42852361  0.33115604  0.52528794    -0.15700
F463        F  0.39700952  0.31288393  0.58309942    -0.19200
F464        F  0.27881545  0.34028014  0.40803054    -0.22600
F465        F  0.29415490  0.38128078  0.40420065    -0.24000
F466        F  0.26281240  0.36811493  0.46752131    -0.18000
F467        F  0.31593327  0.28148164  0.31814738    -0.20500
F468        F  0.34304011  0.29155123  0.24768067    -0.21700
F469        F  0.29308536  0.30649160  0.25973575    -0.18900
F470        F  0.38336654  0.41007628  0.34764221    -0.19000
F471        F  0.40157299  0.38532821  0.41021792    -0.22800
F472        F  0.35274660  0.40308326  0.41591197    -0.24400
C473        C  0.29779568  0.47002516  0.76453884    -0.11200
C474        C  0.31481154  0.48441073  0.72897693     0.11400
C475        C  0.33318566  0.47194575  0.69114774    -0.03000
C476        C  0.33392880  0.44528511  0.69037643    -0.05700
C477        C  0.31674911  0.43067102  0.72554919    -0.16500
C478        C  0.29801397  0.44319903  0.76318288     0.02400
C479        C  0.31384177  0.51259295  0.73266504     0.12400
C480        C  0.35185975  0.48671721  0.65152264     0.63000
H481        H  0.34801780  0.43556579  0.66170289     0.12400
C482        C  0.27896661  0.42859795  0.80241920     0.55100
H483        H  0.28432231  0.48009945  0.79347900     0.08200
C484        C  0.28840059  0.52694448  0.71203633    -0.05600
C485        C  0.29151925  0.55360019  0.71025054    -0.06400
C486        C  0.31909979  0.56606721  0.72856505    -0.15900
C487        C  0.34325730  0.55170160  0.75332537    -0.01500
C488        C  0.34004999  0.52510376  0.75493257    -0.09100
C489        C  0.25840085  0.51407002  0.69147287     0.65200
H490        H  0.27282284  0.56485360  0.69294355     0.10600
C491        C  0.37217711  0.56416432  0.77851989     0.63600
H492        H  0.35870998  0.51365264  0.77186460     0.08000
F493        F  0.26408282  0.44467823  0.83697776    -0.19500
F494        F  0.29910147  0.41273095  0.82929534    -0.15700
F495        F  0.25543410  0.41431946  0.77841519    -0.19200
F496        F  0.37560819  0.50098534  0.67492604    -0.22600
F497        F  0.33152693  0.50273947  0.62547824    -0.24000
F498        F  0.36630367  0.47077855  0.61622767    -0.18000
F499        F  0.38926740  0.54711411  0.80778257    -0.20500
F500        F  0.36236545  0.58379557  0.81020673    -0.21700
F501        F  0.39257544  0.57354171  0.74185374    -0.18900
F502        F  0.23701005  0.53143241  0.67158054    -0.19000
F503        F  0.24319447  0.50127365  0.73026206    -0.22800
F504        F  0.26627554  0.49692745  0.65332356    -0.24400
C505        C  0.52619234  0.67097592  0.37131966    -0.11200
C506        C  0.54013262  0.65196903  0.40114653     0.11400
C507        C  0.55410653  0.63053872  0.37728096    -0.03000
C508        C  0.55654493  0.63006423  0.32398518    -0.05700
C509        C  0.54423937  0.64967917  0.29367297    -0.16500
C510        C  0.52755047  0.67008144  0.31758172     0.02400
C511        C  0.54228933  0.65565467  0.45722021     0.12400
C512        C  0.56592264  0.60807287  0.40808353     0.63000
H513        H  0.56815781  0.61411464  0.30543648     0.12400
C514        C  0.51190454  0.69107726  0.28712269     0.55100
H515        H  0.51496548  0.68686378  0.39069615     0.08200
C516        C  0.56948652  0.66728351  0.47982143    -0.05600
C517        C  0.57316454  0.66629570  0.53296765    -0.06400
C518        C  0.54988756  0.65516327  0.56404330    -0.15900
C519        C  0.52139953  0.64535034  0.54171972    -0.01500
C520        C  0.51822849  0.64557379  0.48822018    -0.09100
C521        C  0.59461168  0.68044287  0.44766591     0.65200
H522        H  0.59453377  0.67403580  0.55077020     0.10600
C523        C  0.49513518  0.63380074  0.57394170     0.63600
H524        H  0.49739031  0.63721314  0.46996947     0.08000
F525        F  0.49817812  0.70939978  0.31827361    -0.19500
F526        F  0.48798657  0.68087039  0.25661238    -0.15700
F527        F  0.53444510  0.70294468  0.25708951    -0.19200
F528        F  0.54031308  0.59709151  0.43283516    -0.22600
F529        F  0.58833272  0.61584331  0.44382209    -0.24000
F530        F  0.57997314  0.58966689  0.37754695    -0.18000
F531        F  0.48222742  0.65231154  0.60543787    -0.20500
F532        F  0.50746342  0.61440710  0.60324763    -0.21700
F533        F  0.47066908  0.62375111  0.54431413    -0.18900
F534        F  0.61851079  0.69133626  0.47732782    -0.19000
F535        F  0.58038761  0.69952732  0.41978007    -0.22800
F536        F  0.60869129  0.66323207  0.41461166    -0.24400
C537        C  0.56310695  0.36883458  0.46071657    -0.11200
C538        C  0.54730422  0.34761454  0.44011311     0.11400
C539        C  0.53396647  0.32920311  0.47271939    -0.03000
C540        C  0.53696157  0.33282428  0.52572335    -0.05700
C541        C  0.55381410  0.35366880  0.54656293    -0.16500
C542        C  0.56676995  0.37227882  0.51349434     0.02400
C543        C  0.54822912  0.34426806  0.38409995     0.12400
C544        C  0.51755058  0.30554604  0.45151337     0.63000
H545        H  0.52730810  0.31875413  0.55131498     0.12400
C546        C  0.58452418  0.39568533  0.53313825     0.55100
H547        H  0.57357435  0.38233488  0.43467300     0.08200
C548        C  0.52741656  0.35756766  0.35119204    -0.05600
C549        C  0.53252793  0.35576494  0.29836637    -0.06400
C550        C  0.55834969  0.34200244  0.27818922    -0.15900
C551        C  0.57853105  0.32805564  0.31109693    -0.01500
C552        C  0.57302547  0.32947024  0.36378407    -0.09100
C553        C  0.50107438  0.37461193  0.37181306     0.65200
H554        H  0.51749920  0.36636786  0.27248386     0.10600
C555        C  0.60560660  0.31166745  0.29092618     0.63600
H556        H  0.58885551  0.31977216  0.38990662     0.08000
F557        F  0.59060055  0.41284662  0.49468979    -0.19500
F558        F  0.61362102  0.38861543  0.55377752    -0.15700
F559        F  0.56642890  0.40803889  0.56975093    -0.19200
F560        F  0.53934197  0.29091568  0.42482308    -0.22600
F561        F  0.49294467  0.31229591  0.41912252    -0.24000
F562        F  0.50476434  0.29074639  0.48972318    -0.18000
F563        F  0.62957870  0.32691236  0.27170163    -0.20500
F564        F  0.59429498  0.29566535  0.25280117    -0.21700
F565        F  0.61874910  0.29671740  0.32874046    -0.18900
F566        F  0.48147300  0.38348594  0.33330771    -0.19000
F567        F  0.51448405  0.39534620  0.39667368    -0.22800
F568        F  0.48217118  0.36143297  0.40563582    -0.24400
C569        C  0.61390492  0.47211763  0.73863003    -0.11200
C570        C  0.58611220  0.48687567  0.73652914     0.11400
C571        C  0.55588092  0.47501507  0.73149782    -0.03000
C572        C  0.55461551  0.44845492  0.72733503    -0.05700
C573        C  0.58240290  0.43342036  0.72795387    -0.16500
C574        C  0.61271107  0.44539558  0.73493492     0.02400
C575        C  0.58937775  0.51484509  0.73518818     0.12400
C576        C  0.52508151  0.49035594  0.72940775     0.63000
H577        H  0.53159817  0.43924077  0.72263194     0.12400
C578        C  0.64373333  0.43045890  0.73753634     0.55100
H579        H  0.63666041  0.48187361  0.74219896     0.08200
C580        C  0.59075803  0.53003493  0.77984266    -0.05600
C581        C  0.58951345  0.55667279  0.77491920    -0.06400
C582        C  0.58757896  0.56808816  0.72683583    -0.15900
C583        C  0.58916182  0.55273347  0.68219808    -0.01500
C584        C  0.58986957  0.52624112  0.68732685    -0.09100
C585        C  0.59401825  0.51805414  0.83198075     0.65200
H586        H  0.58927372  0.56873858  0.80856642     0.10600
C587        C  0.59011251  0.56406361  0.62921483     0.63600
H588        H  0.58965201  0.51407225  0.65379340     0.08000
F589        F  0.64284328  0.41402781  0.77830284    -0.19500
F590        F  0.67007274  0.44617781  0.74418948    -0.15700
F591        F  0.64800526  0.41681415  0.69279241    -0.19200
F592        F  0.52464522  0.50503563  0.68606903    -0.22600
F593        F  0.52286556  0.50608742  0.77167031    -0.24000
F594        F  0.49824544  0.47486287  0.72848189    -0.18000
F595        F  0.59909038  0.54621405  0.59292850    -0.20500
F596        F  0.61206488  0.58378109  0.62780529    -0.21700
F597        F  0.56015440  0.57304696  0.61618752    -0.18900
F598        F  0.59317285  0.53609817  0.87065710    -0.19000
F599        F  0.62291471  0.50540076  0.83486404    -0.22800
F600        F  0.56952033  0.50088246  0.84009754    -0.24400
C601        C  0.20062004  0.71022440  0.14417777    -0.11200
C602        C  0.20251386  0.72885481  0.10645406     0.11400
C603        C  0.22705082  0.72772124  0.06951928    -0.03000
C604        C  0.24959974  0.70808562  0.07248749    -0.05700
C605        C  0.24797743  0.68968064  0.11055221    -0.16500
C606        C  0.22286814  0.69027047  0.14653131     0.02400
C607        C  0.17896432  0.74979768  0.10759087     0.12400
C608        C  0.22998705  0.74752694  0.02811042     0.63000
H609        H  0.26919163  0.70721857  0.04562613     0.12400
C610        C  0.22027944  0.67049604  0.18809530     0.55100
H611        H  0.18169242  0.71165438  0.17210661     0.08200
C612        C  0.14776014  0.74684321  0.08744779    -0.05600
C613        C  0.12681720  0.76768650  0.08949211    -0.06400
C614        C  0.13595727  0.79091932  0.11206146    -0.15900
C615        C  0.16690791  0.79350908  0.13393948    -0.01500
C616        C  0.18806784  0.77282267  0.13072790    -0.09100
C617        C  0.13642650  0.72158737  0.06527989     0.65200
H618        H  0.10282419  0.76585911  0.07415392     0.10600
C619        C  0.17703993  0.81739110  0.16284986     0.63600
H620        H  0.21190737  0.77429447  0.14682340     0.08000
F621        F  0.21504572  0.64677690  0.16641438    -0.19500
F622        F  0.19522065  0.67558719  0.22094344    -0.15700
F623        F  0.24825810  0.67002401  0.21639807    -0.19200
F624        F  0.23799413  0.77074917  0.04972121    -0.22600
F625        F  0.20132524  0.74981065  0.00216478    -0.24000
F626        F  0.25334738  0.74113746  0.99300597    -0.18000
F627        F  0.20645422  0.81450099  0.18646529    -0.20500
F628        F  0.15478161  0.82300533  0.20016932    -0.21700
F629        F  0.17940374  0.83757341  0.12973901    -0.18900
F630        F  0.10631532  0.72348083  0.04356110    -0.19000
F631        F  0.13497924  0.70371438  0.10344293    -0.22800
F632        F  0.15729731  0.71319178  0.02806537    -0.24400
C633        C  0.19560111  0.20935026  0.09651534    -0.11200
C634        C  0.18846626  0.23254369  0.12054160     0.11400
C635        C  0.15848723  0.23594569  0.14429145    -0.03000
C636        C  0.13646649  0.21574323  0.14328659    -0.05700
C637        C  0.14347980  0.19225302  0.11979980    -0.16500
C638        C  0.17383372  0.18883817  0.09625411     0.02400
C639        C  0.21293664  0.25303194  0.12033249     0.12400
C640        C  0.14970194  0.26090690  0.17026495     0.63000
H641        H  0.11339944  0.21824392  0.16122803     0.12400
C642        C  0.18352698  0.16393178  0.07088870     0.55100
H643        H  0.21871456  0.20742789  0.07839668     0.08200
C644        C  0.23854659  0.25362025  0.15567584    -0.05600
C645        C  0.26024186  0.27406334  0.15421577    -0.06400
C646        C  0.25716864  0.29371912  0.11867537    -0.15900
C647        C  0.23185299  0.29276756  0.08251223    -0.01500
C648        C  0.21014764  0.27226444  0.08402892    -0.09100
C649        C  0.24312956  0.23259699  0.19431619     0.65200
H650        H  0.27995852  0.27483027  0.18102688     0.10600
C651        C  0.22825000  0.31270729  0.04149379     0.63600
H652        H  0.19055743  0.27109924  0.05699256     0.08000
F653        F  0.18477755  0.14487970  0.10677602    -0.19500
F654        F  0.21341285  0.16549183  0.04854177    -0.15700
F655        F  0.16170728  0.15747955  0.03317172    -0.19200
F656        F  0.14753156  0.27987131  0.13438510    -0.22600
F657        F  0.17273143  0.26756934  0.20589435    -0.24000
F658        F  0.12062900  0.25936066  0.19515669    -0.18000
F659        F  0.20452436  0.30629470  0.00670715    -0.20500
F660        F  0.25667151  0.31514484  0.01512812    -0.21700
F661        F  0.22024783  0.33582110  0.06342191    -0.18900
F662        F  0.26842404  0.23768494  0.22706937    -0.19000
F663        F  0.24939904  0.20993352  0.16926635    -0.22800
F664        F  0.21584301  0.22979478  0.22332950    -0.24400
C665        C  0.07399073  0.96817551  0.15383741    -0.11200
C666        C  0.08835556  0.97832504  0.11044742     0.11400
C667        C  0.10211575  0.96189005  0.07372229    -0.03000
C668        C  0.09821011  0.93549043  0.07941999    -0.05700
C669        C  0.08160463  0.92527564  0.12094764    -0.16500
C670        C  0.07020656  0.94184228  0.15993288     0.02400
C671        C  0.08771559  0.00633199  0.10470884     0.12400
C672        C  0.12085649  0.97218771  0.02900369     0.63000
H673        H  0.10761845  0.92260008  0.05080841     0.12400
C674        C  0.05448876  0.93208310  0.20812027     0.55100
H675        H  0.06473798  0.98127001  0.18224623     0.08200
C676        C  0.05944261  0.01907898  0.08981827    -0.05600
C677        C  0.05909202  0.04574516  0.09128561    -0.06400
C678        C  0.08600524  0.05995562  0.10645654    -0.15900
C679        C  0.11483201  0.04719284  0.11906215    -0.01500
C680        C  0.11491265  0.02041423  0.11878799    -0.09100
C681        C  0.02968188  0.00460770  0.07269727     0.65200
H682        H  0.03741590  0.05579404  0.08123702     0.10600
C683        C  0.14497282  0.06154274  0.13453981     0.63600
H684        H  0.13602399  0.01016198  0.13078731     0.08000
F685        F  0.02485136  0.92175946  0.19662241    -0.19500
F686        F  0.04993697  0.95132270  0.24371854    -0.15700
F687        F  0.07363660  0.91381232  0.23030735    -0.19200
F688        F  0.14711350  0.98568751  0.04667906    -0.22600
F689        F  0.10175171  0.98806890  0.00041999    -0.24000
F690        F  0.13186669  0.95288975  0.99746118    -0.18000
F691        F  0.16966784  0.04525636  0.14719138    -0.20500
F692        F  0.13884179  0.07688330  0.17644866    -0.21700
F693        F  0.15526101  0.07635079  0.09453806    -0.18900
F694        F  0.00538544  0.02082798  0.05790987    -0.19000
F695        F  0.01817318  0.98988918  0.11190183    -0.22800
F696        F  0.03702321  0.98905364  0.03168355    -0.24400
C697        C  0.73602901  0.75278169  0.14572173    -0.11200
C698        C  0.71155838  0.75416875  0.10936369     0.11400
C699        C  0.71082427  0.77478380  0.07513132    -0.03000
C700        C  0.73485233  0.79353496  0.07880198    -0.05700
C701        C  0.75954042  0.79221446  0.11515593    -0.16500
C702        C  0.76040526  0.77122589  0.14893389     0.02400
C703        C  0.68552293  0.73490764  0.11133429     0.12400
C704        C  0.68467369  0.77702572  0.03510911     0.63000
H705        H  0.73439177  0.80958237  0.05330162     0.12400
C706        C  0.78604105  0.76858670  0.18955125     0.55100
H707        H  0.73554246  0.73713417  0.17220547     0.08200
C708        C  0.68936249  0.70967040  0.09330893    -0.05600
C709        C  0.66379907  0.69245285  0.09888000    -0.06400
C710        C  0.63456317  0.69968103  0.12126300    -0.15900
C711        C  0.63063211  0.72533427  0.13800402    -0.01500
C712        C  0.65666799  0.74217122  0.13399912    -0.09100
C713        C  0.72023676  0.70096707  0.06825216     0.65200
H714        H  0.66664718  0.67301343  0.08581889     0.10600
C715        C  0.59931475  0.73537760  0.15942279     0.63600
H716        H  0.65474929  0.76146150  0.14844861     0.08000
F717        F  0.81542086  0.76463142  0.16676400    -0.19500
F718        F  0.78022178  0.74828114  0.22141914    -0.15700
F719        F  0.78699590  0.79040491  0.21928655    -0.19200
F720        F  0.65540204  0.78072090  0.05826950    -0.22600
F721        F  0.68340196  0.75506443  0.00582022    -0.24000
F722        F  0.69000890  0.79726921  0.00292731    -0.18000
F723        F  0.60089702  0.76111334  0.17080488    -0.20500
F724        F  0.59181604  0.72281835  0.20382636    -0.21700
F725        F  0.57512354  0.73191956  0.12390265    -0.18900
F726        F  0.71824045  0.67604678  0.05100744    -0.19000
F727        F  0.74525424  0.70249944  0.10267413    -0.22800
F728        F  0.72697108  0.71618280  0.02702511    -0.24400
C729        C  0.74468434  0.24155871  0.08105943    -0.11200
C730        C  0.71916889  0.24195152  0.11556512     0.11400
C731        C  0.71669394  0.22277200  0.15286623    -0.03000
C732        C  0.73940270  0.20314019  0.15293483    -0.05700
C733        C  0.76509355  0.20288675  0.11880209    -0.16500
C734        C  0.76852367  0.22276282  0.08322332     0.02400
C735        C  0.69483140  0.26227933  0.11111822     0.12400
C736        C  0.69022198  0.22295770  0.19239389     0.63000
H737        H  0.73741671  0.18784046  0.18008195     0.12400
C738        C  0.79689572  0.22396004  0.04739882     0.55100
H739        H  0.74581957  0.25623690  0.05250986     0.08200
C740        C  0.70064844  0.28752226  0.12798255    -0.05600
C741        C  0.67535988  0.30503565  0.12639177    -0.06400
C742        C  0.64473041  0.29806242  0.10897862    -0.15900
C743        C  0.63938360  0.27306260  0.08990760    -0.01500
C744        C  0.66484509  0.25565966  0.09090151    -0.09100
C745        C  0.73308979  0.29583136  0.14861607     0.65200
H746        H  0.67914091  0.32428154  0.14018278     0.10600
C747        C  0.60729579  0.26472522  0.06799530     0.63600
H748        H  0.66136278  0.23637814  0.07707769     0.08000
F749        F  0.82471831  0.22749561  0.07525635    -0.19500
F750        F  0.79431590  0.24388774  0.01359431    -0.15700
F751        F  0.79903002  0.20158865  0.01951378    -0.19200
F752        F  0.66128375  0.21713302  0.16944750    -0.22600
F753        F  0.68821498  0.24667570  0.21535336    -0.24000
F754        F  0.69575542  0.20534619  0.23024886    -0.18000
F755        F  0.60889799  0.24084278  0.04552595    -0.20500
F756        F  0.59749036  0.28169027  0.03118709    -0.21700
F757        F  0.58471582  0.26370092  0.10626934    -0.18900
F758        F  0.73280117  0.32083027  0.16566198    -0.19000
F759        F  0.75588928  0.29389872  0.11083619    -0.22800
F760        F  0.74182947  0.28063960  0.18897758    -0.24400
C761        C  0.80846611  0.02272932  0.14862520    -0.11200
C762        C  0.80411652  0.01202233  0.10008292     0.11400
C763        C  0.79911983  0.02803584  0.05775994    -0.03000
C764        C  0.80164199  0.05459076  0.06505474    -0.05700
C765        C  0.80868193  0.06516706  0.11315234    -0.16500
C766        C  0.81091392  0.04910988  0.15604423     0.02400
C767        C  0.80626559  0.98390821  0.09565979     0.12400
C768        C  0.79088254  0.01711255  0.00561163     0.63000
H769        H  0.79902519  0.06724787  0.03303720     0.12400
C770        C  0.81597610  0.05964626  0.20956443     0.55100
H771        H  0.81132667  0.01005690  0.18059183     0.08200
C772        C  0.83622308  0.97146286  0.09481774    -0.05600
C773        C  0.83689625  0.94483946  0.09796621    -0.06400
C774        C  0.80883613  0.93015783  0.10252130    -0.15900
C775        C  0.77867810  0.94273385  0.10175912    -0.01500
C776        C  0.77809042  0.96952098  0.09862452    -0.09100
C777        C  0.86749320  0.98625222  0.09154310     0.65200
H778        H  0.85981209  0.93531485  0.09802579     0.10600
C779        C  0.74721443  0.92835580  0.10465751     0.63600
H780        H  0.75556660  0.97963620  0.09987927     0.08000
F781        F  0.84711014  0.06820713  0.21503880    -0.19500
F782        F  0.81059166  0.04135224  0.24610311    -0.15700
F783        F  0.79506028  0.07951695  0.21875964    -0.19200
F784        F  0.76176680  0.00466052  0.00789465    -0.22600
F785        F  0.81405884  0.00005753  0.99005623    -0.24000
F786        F  0.78859391  0.03589922  0.96921770    -0.18000
F787        F  0.72111673  0.94447758  0.10211483    -0.20500
F788        F  0.74543083  0.91542303  0.15015288    -0.21700
F789        F  0.74495488  0.91135083  0.06430049    -0.18900
F790        F  0.89376982  0.97030248  0.08905523    -0.19000
F791        F  0.87117866  0.00175665  0.13394079    -0.22800
F792        F  0.86750709  0.00108977  0.04842990    -0.24400
C793        C  0.19440699  0.78179604  0.75060948    -0.11200
C794        C  0.18832669  0.75870103  0.72528536     0.11400
C795        C  0.15812067  0.75433232  0.70241792    -0.03000
C796        C  0.13571246  0.77416277  0.70236974    -0.05700
C797        C  0.14207844  0.79785205  0.72567161    -0.16500
C798        C  0.17163089  0.80152111  0.75178516     0.02400
C799        C  0.21396545  0.73924814  0.72360092     0.12400
C800        C  0.14957233  0.72883262  0.67816523     0.63000
H801        H  0.11293508  0.77127249  0.68342036     0.12400
C802        C  0.17909018  0.82570163  0.78163411     0.55100
H803        H  0.21741496  0.78427402  0.76912451     0.08200
C804        C  0.23821411  0.73963398  0.68622321    -0.05600
C805        C  0.26050930  0.71964616  0.68485933    -0.06400
C806        C  0.25950770  0.69963213  0.71998342    -0.15900
C807        C  0.23591414  0.69994672  0.75881240    -0.01500
C808        C  0.21356503  0.71992619  0.75988195    -0.09100
C809        C  0.24079478  0.76133128  0.64865741     0.65200
H810        H  0.27896000  0.71949266  0.65602246     0.10600
C811        C  0.23450150  0.67973427  0.79962479     0.63600
H812        H  0.19509661  0.72046940  0.78869010     0.08000
F813        F  0.18221349  0.84588657  0.74868222    -0.19500
F814        F  0.20733231  0.82373205  0.80902031    -0.15700
F815        F  0.15477401  0.83063980  0.81592967    -0.19200
F816        F  0.15171989  0.70986505  0.71405124    -0.22600
F817        F  0.17028497  0.72345075  0.63863127    -0.24000
F818        F  0.11867783  0.72856775  0.65893606    -0.18000
F819        F  0.21233044  0.68562882  0.83693412    -0.20500
F820        F  0.26407652  0.67753648  0.82298836    -0.21700
F821        F  0.22580829  0.65665135  0.77799595    -0.18900
F822        F  0.26498146  0.75732539  0.61362989    -0.19000
F823        F  0.24735722  0.78371312  0.67473080    -0.22800
F824        F  0.21239916  0.76399989  0.62211130    -0.24400
C825        C  0.04626411  0.82015307  0.47491196    -0.11200
C826        C  0.05356036  0.84166066  0.44598481     0.11400
C827        C  0.05945477  0.86521438  0.47078264    -0.03000
C828        C  0.06040567  0.86597036  0.52422753    -0.05700
C829        C  0.05474646  0.84425208  0.55356446    -0.16500
C830        C  0.04643269  0.82100798  0.52864924     0.02400
C831        C  0.05495126  0.83910770  0.38964801     0.12400
C832        C  0.06486740  0.88945075  0.44092656     0.63000
H833        H  0.06587331  0.88370337  0.54370608     0.12400
C834        C  0.03893420  0.79701305  0.55809825     0.55100
H835        H  0.04101079  0.80254257  0.45483668     0.08200
C836        C  0.08373087  0.83293945  0.36416624    -0.05600
C837        C  0.08415825  0.83351371  0.31069121    -0.06400
C838        C  0.05658889  0.83898020  0.28213927    -0.15900
C839        C  0.02731793  0.84378327  0.30766325    -0.01500
C840        C  0.02710692  0.84382658  0.36133116    -0.09100
C841        C  0.11360701  0.82513960  0.39320967     0.65200
H842        H  0.10616250  0.82946856  0.29054657     0.10600
C843        C  0.99677617  0.84974927  0.27869550     0.63600
H844        H  0.00529735  0.84805810  0.38184701     0.08000
F845        F  0.06493179  0.79051674  0.58796288    -0.19500
F846        F  0.03210362  0.77663420  0.52605730    -0.15700
F847        F  0.01250353  0.80094867  0.58868113    -0.19200
F848        F  0.03868718  0.89409688  0.41013008    -0.22600
F849        F  0.09178136  0.88709600  0.41089887    -0.24000
F850        F  0.06911865  0.91035838  0.47270020    -0.18000
F851        F  0.98753301  0.82878337  0.25001111    -0.20500
F852        F  0.00178475  0.87020461  0.24694042    -0.21700
F853        F  0.97184781  0.85587879  0.31109256    -0.18900
F854        F  0.13927421  0.82099304  0.36099582    -0.19000
F855        F  0.10758513  0.80284690  0.41893788    -0.22800
F856        F  0.12240877  0.84378971  0.42794270    -0.24400
C857        C  0.16456859  0.23827779  0.75724562    -0.11200
C858        C  0.19173162  0.23496596  0.72687273     0.11400
C859        C  0.19581843  0.21209439  0.69891811    -0.03000
C860        C  0.17136476  0.19368049  0.70023337    -0.05700
C861        C  0.14308395  0.19766448  0.72797180    -0.16500
C862        C  0.13967279  0.22024737  0.75755733     0.02400
C863        C  0.21513014  0.25615223  0.72424475     0.12400
C864        C  0.22584044  0.20726500  0.66786093     0.63000
H865        H  0.17382547  0.17621144  0.67844413     0.12400
C866        C  0.11004665  0.22551601  0.78924499     0.55100
H867        H  0.16254362  0.25571634  0.77927064     0.08200
C868        C  0.20949575  0.27782766  0.69390844    -0.05600
C869        C  0.23279295  0.29714096  0.69307969    -0.06400
C870        C  0.26149568  0.29509599  0.72053159    -0.15900
C871        C  0.26687504  0.27357689  0.75156759    -0.01500
C872        C  0.24320309  0.25455762  0.75331495    -0.09100
C873        C  0.17945040  0.28022101  0.66150826     0.65200
H874        H  0.22916555  0.31377493  0.66978344     0.10600
C875        C  0.29681808  0.27105869  0.78411598     0.63600
H876        H  0.24647467  0.23807277  0.77714376     0.08000
F877        F  0.08411855  0.22952640  0.75752249    -0.19500
F878        F  0.11372084  0.24694954  0.81977604    -0.15700
F879        F  0.10382786  0.20512644  0.82059975    -0.19200
F880        F  0.25204767  0.20591037  0.69995853    -0.22600
F881        F  0.23050604  0.22674633  0.63368770    -0.24000
F882        F  0.22396923  0.18467167  0.64053712    -0.18000
F883        F  0.29569837  0.24975725  0.81461691    -0.20500
F884        F  0.29998700  0.29220659  0.81547549    -0.21700
F885        F  0.32350736  0.26890473  0.75347261    -0.18900
F886        F  0.17881446  0.30285510  0.63506769    -0.19000
F887        F  0.15254005  0.27947461  0.69184290    -0.22800
F888        F  0.17808170  0.26044257  0.62650801    -0.24400
C889        C  0.03212660  0.14682486  0.47653327    -0.11200
C890        C  0.06069850  0.14585627  0.44875498     0.11400
C891        C  0.09040702  0.14749407  0.47449924    -0.03000
C892        C  0.09051914  0.14795508  0.52796644    -0.05700
C893        C  0.06201721  0.14820506  0.55625265    -0.16500
C894        C  0.03217126  0.14838297  0.53017315     0.02400
C895        C  0.05892890  0.14381378  0.39245482     0.12400
C896        C  0.12177661  0.14949232  0.44557151     0.63000
H897        H  0.11311787  0.14846055  0.54825213     0.12400
C898        C  0.00056831  0.14975210  0.55841834     0.55100
H899        H  0.00974864  0.14630514  0.45562514     0.08200
C900        C  0.05923233  0.12000817  0.36686033    -0.05600
C901        C  0.06034123  0.11964429  0.31328794    -0.06400
C902        C  0.06001377  0.14219233  0.28504810    -0.15900
C903        C  0.05861150  0.16597368  0.31081158    -0.01500
C904        C  0.05797055  0.16632242  0.36438643    -0.09100
C905        C  0.05778338  0.09519503  0.39604491     0.65200
H906        H  0.06130452  0.10166991  0.29287278     0.10600
C907        C  0.05934399  0.19086292  0.28204971     0.63600
H908        H  0.05743076  0.18424049  0.38504279     0.08000
F909        F  0.97462095  0.14852125  0.52555905    -0.19500
F910        F  0.99872005  0.17250173  0.58510421    -0.15700
F911        F  0.99817599  0.12969333  0.59187789    -0.19200
F912        F  0.12158172  0.17121604  0.41638861    -0.22600
F913        F  0.12588085  0.12862922  0.41394519    -0.24000
F914        F  0.14786666  0.15086169  0.47811433    -0.18000
F915        F  0.06088128  0.21167702  0.31464430    -0.20500
F916        F  0.03194316  0.19307980  0.25281524    -0.21700
F917        F  0.08591421  0.19154509  0.25081648    -0.18900
F918        F  0.05892791  0.07424047  0.36379734    -0.19000
F919        F  0.02953541  0.09411513  0.42315308    -0.22800
F920        F  0.08314861  0.09350960  0.42970217    -0.24400
C921        C  0.09468340  0.02575561  0.77489664    -0.11200
C922        C  0.07647313  0.01105590  0.74078429     0.11400
C923        C  0.05707794  0.02312941  0.70401532    -0.03000
C924        C  0.05769112  0.04978301  0.70144476    -0.05700
C925        C  0.07704618  0.06470118  0.73407233    -0.16500
C926        C  0.09576530  0.05246320  0.77192205     0.02400
C927        C  0.07885733  0.98295224  0.74335335     0.12400
C928        C  0.03604054  0.00793829  0.66733925     0.63000
H929        H  0.04315290  0.05917112  0.67313005     0.12400
C930        C  0.11687295  0.06717012  0.80906276     0.55100
H931        H  0.10863964  0.01593845  0.80337655     0.08200
C932        C  0.10480933  0.96954965  0.72144952    -0.05600
C933        C  0.10337464  0.94282545  0.71910699    -0.06400
C934        C  0.07722180  0.92937114  0.73881702    -0.15900
C935        C  0.05295094  0.94281431  0.76557422    -0.01500
C936        C  0.05415919  0.96953219  0.76695104    -0.09100
C937        C  0.13374167  0.98346897  0.70056326     0.65200
H938        H  0.12229743  0.93225828  0.70050604     0.10600
C939        C  0.02628854  0.92922233  0.79366690     0.63600
H940        H  0.03529523  0.98027562  0.78533265     0.08000
F941        F  0.14071055  0.07966006  0.78275234    -0.19500
F942        F  0.13153710  0.05138218  0.84391904    -0.15700
F943        F  0.09865931  0.08458229  0.83598903    -0.19200
F944        F  0.01302466  0.99479328  0.69414482    -0.22600
F945        F  0.05447181  0.99084177  0.64001865    -0.24000
F946        F  0.02043340  0.02341581  0.63291525    -0.18000
F947        F  0.00929021  0.94572807  0.82474825    -0.20500
F948        F  0.03910715  0.91049292  0.82415790    -0.21700
F949        F  0.00502630  0.91840765  0.75930643    -0.18900
F950        F  0.15531894  0.96695557  0.67802455    -0.19000
F951        F  0.14939851  0.99611367  0.73978430    -0.22800
F952        F  0.12426190  0.00087945  0.66443615    -0.24400
C953        C  0.70443681  0.78370161  0.69033545    -0.11200
C954        C  0.71038263  0.76296655  0.72210903     0.11400
C955        C  0.73934088  0.76174435  0.75002734    -0.03000
C956        C  0.76155884  0.78165534  0.74524578    -0.05700
C957        C  0.75553574  0.80256954  0.71390710    -0.16500
C958        C  0.72648480  0.80379847  0.68594405     0.02400
C959        C  0.68644828  0.74216238  0.72333752     0.12400
C960        C  0.74695792  0.73931908  0.78400538     0.63000
H961        H  0.78400816  0.78100529  0.76592664     0.12400
C962        C  0.71926953  0.82561371  0.65017526     0.55100
H963        H  0.68233136  0.78386429  0.66869442     0.08200
C964        C  0.65794920  0.74402965  0.75199199    -0.05600
C965        C  0.63612573  0.72364608  0.75008348    -0.06400
C966        C  0.64251961  0.70134614  0.72205459    -0.15900
C967        C  0.67145358  0.69938144  0.69411274    -0.01500
C968        C  0.69259806  0.72020459  0.69447017    -0.09100
C969        C  0.65092216  0.76723882  0.78498427     0.65200
H970        H  0.61393767  0.72483981  0.77113482     0.10600
C971        C  0.67988995  0.67577399  0.66323888     0.63600
H972        H  0.71446588  0.71948747  0.67250774     0.08000
F973        F  0.71647385  0.84806144  0.67759653    -0.19500
F974        F  0.69091102  0.82184535  0.62373320    -0.15700
F975        F  0.74363610  0.82791948  0.61498679    -0.19200
F976        F  0.75129096  0.71771637  0.75449579    -0.22600
F977        F  0.72217572  0.73519043  0.81765645    -0.24000
F978        F  0.77456412  0.74339128  0.81222302    -0.18000
F979        F  0.70799737  0.67886936  0.63621658    -0.20500
F980        F  0.65569559  0.67033928  0.62871846    -0.21700
F981        F  0.68405141  0.65540107  0.69544734    -0.18900
F982        F  0.62278035  0.76446234  0.81202952    -0.19000
F983        F  0.64805744  0.78854697  0.75497101    -0.22800
F984        F  0.67548423  0.77105634  0.81962430    -0.24400
C985        C  0.87413548  0.85486504  0.47198291    -0.11200
C986        C  0.84743118  0.84810441  0.44238290     0.11400
C987        C  0.81925966  0.83924207  0.46610781    -0.03000
C988        C  0.81792844  0.83939351  0.51948156    -0.05700
C989        C  0.84402879  0.84735687  0.54948413    -0.16500
C990        C  0.87310492  0.85440356  0.52558177     0.02400
C991        C  0.84925086  0.85070827  0.38641622     0.12400
C992        C  0.79069705  0.82983688  0.43511254     0.63000
H993        H  0.79616521  0.83354870  0.53838161     0.12400
C994        C  0.90256098  0.86202495  0.55611168     0.55100
H995        H  0.89562481  0.86091806  0.45257734     0.08200
C996        C  0.83907242  0.87306228  0.36180294    -0.05600
C997        C  0.83652059  0.87276143  0.30840855    -0.06400
C998        C  0.84558723  0.85141718  0.27920916    -0.15900
C999        C  0.85892713  0.82998468  0.30404416    -0.01500
C1000       C  0.85993877  0.82990648  0.35761117    -0.09100
C1001       C  0.83167528  0.89718532  0.39189379     0.65200
H1002       H  0.82749934  0.88933819  0.28892704     0.10600
C1003       C  0.87137452  0.80705573  0.27476666     0.63600
H1004       H  0.86850457  0.81336921  0.37772942     0.08000
F1005       F  0.92738099  0.86977131  0.52505698    -0.19500
F1006       F  0.91313144  0.84147640  0.58393066    -0.15700
F1007       F  0.89532766  0.88194305  0.58882533    -0.19200
F1008       F  0.79972821  0.80941697  0.40494856    -0.22600
F1009       F  0.77932942  0.84895413  0.40426080    -0.24000
F1010       F  0.76581220  0.82199616  0.46591312    -0.18000
F1011       F  0.89717121  0.81419015  0.24532243    -0.20500
F1012       F  0.84761307  0.79717832  0.24377484    -0.21700
F1013       F  0.88140932  0.78790926  0.30687670    -0.18900
F1014       F  0.82099462  0.91649053  0.36073025    -0.19000
F1015       F  0.85913978  0.90551091  0.41644791    -0.22800
F1016       F  0.80833419  0.89270824  0.42785951    -0.24400
C1017       C  0.73319847  0.24332297  0.68356897    -0.11200
C1018       C  0.70781357  0.24158762  0.71794196     0.11400
C1019       C  0.70548030  0.22036606  0.75036113    -0.03000
C1020       C  0.73013618  0.20219025  0.74947245    -0.05700
C1021       C  0.75622868  0.20416991  0.71603750    -0.16500
C1022       C  0.75728894  0.22471312  0.68121502     0.02400
C1023       C  0.68287456  0.26153985  0.71653997     0.12400
C1024       C  0.67683546  0.21683213  0.78510813     0.63000
H1025       H  0.72908930  0.18612797  0.77488414     0.12400
C1026       C  0.78280444  0.22669003  0.64035117     0.55100
H1027       H  0.73372092  0.25938347  0.65807610     0.08200
C1028       C  0.68595622  0.28466751  0.74399013    -0.05600
C1029       C  0.66122034  0.30258844  0.74062285    -0.06400
C1030       C  0.63412801  0.29840185  0.70977274    -0.15900
C1031       C  0.63141868  0.27531494  0.68139189    -0.01500
C1032       C  0.65606441  0.25728270  0.68546332    -0.09100
C1033       C  0.71585344  0.29095413  0.77468920     0.65200
H1034       H  0.66322143  0.32036185  0.76155302     0.10600
C1035       C  0.60341903  0.26980357  0.64577967     0.63600
H1036       H  0.65477188  0.23956571  0.66417806     0.08000
F1037       F  0.81206346  0.23218875  0.66260765    -0.19500
F1038       F  0.77600799  0.24569232  0.60585247    -0.22900
F1039       F  0.78475822  0.20402429  0.61332930    -0.19200
F1040       F  0.64906158  0.21555811  0.75644477    -0.22600
F1041       F  0.67469409  0.23703223  0.81895795    -0.24000
F1042       F  0.67901784  0.19466890  0.81287686    -0.18000
F1043       F  0.60714102  0.24702597  0.61962380    -0.20500
F1044       F  0.60086308  0.28892547  0.61018397    -0.21700
F1045       F  0.57536760  0.26817742  0.67333309    -0.18900
F1046       F  0.71235250  0.31316019  0.80288729    -0.19000
F1047       F  0.74133138  0.29409036  0.74192624    -0.22800
F1048       F  0.72278835  0.27159164  0.80811177    -0.24400
C1049       C  0.81801153  0.15973642  0.37105613    -0.11200
C1050       C  0.84490676  0.14872246  0.39376110     0.11400
C1051       C  0.86894989  0.13773415  0.36280201    -0.03000
C1052       C  0.86549707  0.13881513  0.30939113    -0.05700
C1053       C  0.83804875  0.14920022  0.28653838    -0.16500
C1054       C  0.81387389  0.16000366  0.31791264     0.02400
C1055       C  0.84553880  0.14739355  0.45026007     0.12400
C1056       C  0.89746808  0.12421907  0.38618729     0.63000
H1057       H  0.88357319  0.13045946  0.28503518     0.12400
C1058       C  0.78365886  0.17170808  0.29591449     0.55100
H1059       H  0.79966484  0.16747141  0.39573579     0.08200
C1060       C  0.85498430  0.16831508  0.48115223    -0.05600
C1061       C  0.85169116  0.16651294  0.53435061    -0.06400
C1062       C  0.83860715  0.14479457  0.55710856    -0.15900
C1063       C  0.83028917  0.12348018  0.52615836    -0.01500
C1064       C  0.83362325  0.12533281  0.47304053    -0.09100
C1065       C  0.86727394  0.19277012  0.45788400     0.65200
H1066       H  0.85803949  0.18256691  0.55849900     0.10600
C1067       C  0.81828123  0.09874627  0.54876402     0.63600
H1068       H  0.82616821  0.10970581  0.44854296     0.08000
F1069       F  0.76604916  0.18439734  0.33274016    -0.19500
F1070       F  0.76438672  0.15283648  0.27523057    -0.15700
F1071       F  0.79150776  0.18903834  0.25866798    -0.19200
F1072       F  0.88702268  0.10401247  0.41503936    -0.22600
F1073       F  0.91456627  0.14078605  0.41710682    -0.24000
F1074       F  0.91799665  0.11477324  0.34939178    -0.18000
F1075       F  0.78747755  0.10192401  0.56671950    -0.20500
F1076       F  0.83809637  0.09140520  0.58828747    -0.21700
F1077       F  0.81783493  0.07921143  0.51305172    -0.18900
F1078       F  0.87804951  0.20977461  0.49471145    -0.19000
F1079       F  0.84298268  0.20427319  0.43077399    -0.22800
F1080       F  0.89242076  0.18767250  0.42538774    -0.24400
C1081       C  0.77540836  0.03019251  0.72945403    -0.11200
C1082       C  0.80271718  0.01569383  0.73998354     0.11400
C1083       C  0.83196101  0.02806378  0.75177199    -0.03000
C1084       C  0.83306867  0.05472944  0.75109473    -0.05700
C1085       C  0.80615498  0.06938877  0.73855547    -0.16500
C1086       C  0.77642188  0.05700369  0.72913625     0.02400
C1087       C  0.80140236  0.98771006  0.73220735     0.12400
C1088       C  0.86225021  0.01312942  0.76310289     0.63000
H1089       H  0.85553424  0.06437242  0.75865473     0.12400
C1090       C  0.74623346  0.07173472  0.71672763     0.55100
H1091       H  0.75351187  0.02023113  0.71962494     0.08200
C1092       C  0.78963503  0.97077858  0.76927384    -0.05600
C1093       C  0.79389240  0.94443708  0.76134007    -0.06400
C1094       C  0.80933475  0.93484619  0.71765801    -0.15900
C1095       C  0.81853607  0.95192400  0.67870817    -0.01500
C1096       C  0.81398735  0.97808421  0.68668785    -0.09100
C1097       C  0.77320372  0.98053316  0.81706687     0.65200
H1098       H  0.78612165  0.93118108  0.79008150     0.10600
C1099       C  0.83303462  0.94289016  0.62871569     0.63600
H1100       H  0.82168711  0.99152720  0.65821406     0.08000
F1101       F  0.73837087  0.08738707  0.75738916    -0.19500
F1102       F  0.72043127  0.05578337  0.70735644    -0.15700
F1103       F  0.75103100  0.08625561  0.67378731    -0.19200
F1104       F  0.87212464  0.00020057  0.71990109    -0.22600
F1105       F  0.85653561  0.99586008  0.80136874    -0.24000
F1106       F  0.88709243  0.02883208  0.77878936    -0.18000
F1107       F  0.83543604  0.96237772  0.59387588    -0.20500
F1108       F  0.81405678  0.92403996  0.60716062    -0.21700
F1109       F  0.86350510  0.93360470  0.63714039    -0.18900
F1110       F  0.76206530  0.96084435  0.84683970    -0.19000
F1111       F  0.74727599  0.99541092  0.80401891    -0.22800
F1112       F  0.79438443  0.99493956  0.84586178    -0.24400
loop_ 
_geom_bond_atom_site_label_1 
_geom_bond_atom_site_label_2 
_geom_bond_distance 
_geom_bond_site_symmetry_2 
_ccdc_geom_bond_type 
In1           O3   2.241       .  S
In1           O4   2.250       .  S
In1          O12   2.235       .  S
In1           O6   2.259       .  S
In1           O8   2.249       .  S
In1           O9   2.262       .  S
In1          O10   2.251       .  S
In1          O13   2.230       .  S
C2            O8   1.261       .  A
C2           O10   1.261       .  A
C2          C160   1.491       .  S
O3           C11   1.260       .  A
O4           C11   1.263       .  A
C5           O12   1.258       .  A
C5            O6   1.262       .  A
C5         C1062   1.484       .  S
C7            O9   1.262       .  A
C7           O13   1.260       .  A
C7         C1085   1.487       .  S
C11        C1021   1.488       .  S
In14         O16   2.244       .  S
In14         O17   2.243       .  S
In14         O25   2.240       .  S
In14         O19   2.230       .  S
In14         O21   2.268       .  S
In14         O22   2.263       .  S
In14         O23   2.229       .  S
In14         O26   2.228       .  S
C15          O21   1.260       .  A
C15          O23   1.256       .  A
C15        C1094   1.485       .  S
O16          C24   1.258       .  A
O17          C24   1.261       .  A
C18          O25   1.263       .  A
C18          O19   1.261       .  A
C18         C957   1.476       .  S
C20          O22   1.262       .  A
C20          O26   1.260       .  A
C20         C989   1.481       .  S
C24         C126   1.487       .  S
In27         O29   2.235       .  S
In27         O30   2.245       .  S
In27         O38   2.236       .  S
In27         O32   2.248       .  S
In27         O34   2.251       .  S
In27         O35   2.255       .  S
In27         O36   2.229       .  S
In27         O39   2.225       .  S
C28          O34   1.262       .  A
C28          O36   1.259       .  A
C28         C925   1.490       .  S
O29          C37   1.260       .  A
O30          C37   1.264       .  A
C31          O38   1.261       .  A
C31          O32   1.264       .  A
C31         C861   1.483       .  S
C33          O35   1.264       .  A
C33          O39   1.260       .  A
C33         C893   1.486       .  S
C37         C159   1.492       .  S
In40         O42   2.227       .  S
In40         O43   2.253       .  S
In40         O51   2.244       .  S
In40         O45   2.259       .  S
In40         O47   2.231       .  S
In40         O48   2.265       .  S
In40         O49   2.243       .  S
In40         O52   2.227       .  S
C41          O47   1.261       .  A
C41          O49   1.261       .  A
C41         C125   1.487       .  S
O42          C50   1.261       .  A
O43          C50   1.262       .  A
C44          O51   1.260       .  A
C44          O45   1.259       .  A
C44         C829   1.487       .  S
C46          O48   1.265       .  A
C46          O52   1.257       .  A
C46         C934   1.483       .  S
C50         C797   1.489       .  S
In53         O55   2.244       .  S
In53         O56   2.239       .  S
In53         O64   2.234       .  S
In53         O58   2.234       .  S
In53         O60   2.271       .  S
In53         O61   2.272       .  S
In53         O62   2.221       .  S
In53         O65   2.226       .  S
C54          O60   1.262       .  A
C54          O62   1.256       .  A
C54         C765   1.478       .  S
O55          C63   1.260       .  A
O56          C63   1.264       .  A
C57          O64   1.261       .  A
C57          O58   1.264       .  A
C57         C733   1.474       .  S
C59          O61   1.266       .  A
C59          O65   1.258       .  A
C59        C1053   1.487       .  S
C63         C161   1.493       .  S
In66         O68   2.248       .  S
In66         O69   2.258       .  S
In66         O77   2.245       .  S
In66         O71   2.258       .  S
In66         O73   2.233       .  S
In66         O74   2.269       .  S
In66         O75   2.256       .  S
In66         O78   2.229       .  S
C67          O73   1.262       .  A
C67          O75   1.262       .  A
C67         C127   1.491       .  S
O68          C76   1.259       .  A
O69          C76   1.264       .  A
C70          O77   1.260       .  A
C70          O71   1.260       .  A
C70         C998   1.485       .  S
C72          O74   1.263       .  A
C72          O78   1.260       .  A
C72         C774   1.497       .  S
C76         C701   1.490       .  S
In79         O81   2.236       .  S
In79         O82   2.242       .  S
In79         O90   2.246       .  S
In79         O84   2.259       .  S
In79         O86   2.248       .  S
In79         O87   2.244       .  S
In79         O88   2.255       .  S
In79         O91   2.226       .  S
C80          O86   1.262       .  A
C80          O88   1.260       .  A
C80         C162   1.493       .  S
O81          C89   1.262       .  A
O82          C89   1.260       .  A
C83          O90   1.258       .  A
C83          O84   1.261       .  A
C83         C902   1.481       .  S
C85          O87   1.261       .  A
C85          O91   1.261       .  A
C85         C678   1.481       .  S
C89         C637   1.490       .  S
In92         O94   2.240       .  S
In92         O95   2.247       .  S
In92        O103   2.234       .  S
In92         O97   2.231       .  S
In92         O99   2.257       .  S
In92        O100   2.250       .  S
In92        O101   2.226       .  S
In92        O104   2.228       .  S
C93          O99   1.263       .  A
C93         O101   1.256       .  A
C93         C669   1.482       .  S
O94         C102   1.259       .  A
O95         C102   1.261       .  A
C96         O103   1.263       .  A
C96          O97   1.262       .  A
C96         C614   1.478       .  S
C98         O100   1.264       .  A
C98         O104   1.260       .  A
C98         C838   1.482       .  S
C102        C128   1.489       .  S
N105        C110   1.351       .  A
N105        C109   1.352       .  A
N105        H137   1.043       .  S
N106        C113   1.351   1_655  A
N106        C114   1.351   1_655  A
N107        C112   1.352   1_556  A
N107        C111   1.352   1_556  A
N107        H138   1.043       .  S
N108        C115   1.351       .  A
N108        C116   1.352       .  A
C109        C117   1.387       .  A
C109        C125   1.412   1_655  A
C110        C126   1.412       .  A
C110        C118   1.387       .  A
C111        C119   1.386       .  A
C111        C128   1.412   1_655  A
C112        C127   1.414       .  A
C112        C120   1.387       .  A
C113        C125   1.413       .  A
C113        C121   1.386       .  A
C114        C128   1.414   1_556  A
C114        C122   1.387       .  A
C115        C123   1.387       .  A
C115        C126   1.415       .  A
C116        C124   1.387       .  A
C116        C127   1.415   1_556  A
C117        C118   1.376       .  A
C117        H129   1.082       .  S
C118        H130   1.082       .  S
C119        C120   1.376       .  A
C119        H131   1.082       .  S
C120        H132   1.082       .  S
C121        C122   1.373       .  A
C121        H133   1.081       .  S
C122        H134   1.081       .  S
C123        C124   1.376       .  A
C123        H135   1.081       .  S
C124        H136   1.081       .  S
N139        C144   1.353       .  A
N139        C143   1.352       .  A
N139        H171   1.042       .  S
N140        C147   1.352   1_655  A
N140        C148   1.354   1_655  A
N141        C146   1.351   1_556  A
N141        C145   1.352   1_556  A
N141        H172   1.043       .  S
N142        C149   1.353       .  A
N142        C150   1.353       .  A
C143        C151   1.388       .  A
C143        C159   1.416   1_655  A
C144        C160   1.414       .  A
C144        C152   1.387       .  A
C145        C153   1.386       .  A
C145        C162   1.411   1_655  A
C146        C161   1.413       .  A
C146        C154   1.388       .  A
C147        C159   1.418       .  A
C147        C155   1.388       .  A
C148        C162   1.414   1_556  A
C148        C156   1.385       .  A
C149        C157   1.386       .  A
C149        C160   1.415       .  A
C150        C158   1.387       .  A
C150        C161   1.417   1_556  A
C151        C152   1.378       .  A
C151        H163   1.082       .  S
C152        H164   1.082       .  S
C153        C154   1.376       .  A
C153        H165   1.082       .  S
C154        H166   1.082       .  S
C155        C156   1.375       .  A
C155        H167   1.080       .  S
C156        H168   1.081       .  S
C157        C158   1.375       .  A
C157        H169   1.081       .  S
C158        H170   1.081       .  S
In173       O175   2.223       .  S
In173       O176   2.230       .  S
In173       O184   2.223       .  S
In173       O178   2.259       .  S
In173       O180   2.240       .  S
In173       O181   2.244       .  S
In173       O182   2.245       .  S
In173       O185   2.223       .  S
C174        O180   1.263       .  A
C174        O182   1.258       .  A
C174        C300   1.488       .  S
O175        C183   1.260       .  A
O176        C183   1.264       .  A
C177        O184   1.258       .  A
C177        O178   1.264       .  A
C177        C541   1.484       .  S
C179        O181   1.261       .  A
C179        O185   1.261       .  A
C179        C573   1.487       .  S
C183       C1030   1.483       .  S
In186       O188   2.255       .  S
In186       O189   2.236       .  S
In186       O197   2.241       .  S
In186       O191   2.241       .  S
In186       O193   2.272       .  S
In186       O194   2.252       .  S
In186       O195   2.223       .  S
In186       O198   2.237       .  S
C187        O193   1.261       .  A
C187        O195   1.254       .  A
C187        C582   1.477       .  S
O188        C196   1.260       .  A
O189        C196   1.261       .  A
C190        O197   1.262       .  A
C190        O191   1.261       .  A
C190        C966   1.482       .  S
C192        O194   1.263       .  A
C192        O198   1.262       .  A
C192        C518   1.481       .  S
C196        C334   1.489       .  S
In199       O201   2.235       .  S
In199       O202   2.234       .  S
In199       O210   2.227       .  S
In199       O204   2.246       .  S
In199       O206   2.264       .  S
In199       O207   2.257       .  S
In199       O208   2.224       .  S
In199       O211   2.222       .  S
C200        O206   1.262       .  A
C200        O208   1.259       .  A
C200        C477   1.487       .  S
O201        C209   1.259       .  A
O202        C209   1.262       .  A
C203        O210   1.260       .  A
C203        O204   1.264       .  A
C203        C870   1.477       .  S
C205        O207   1.261       .  A
C205        O211   1.261       .  A
C205        C445   1.490       .  S
C209        C299   1.486       .  S
In212       O214   2.240       .  S
In212       O215   2.244       .  S
In212       O223   2.231       .  S
In212       O217   2.265       .  S
In212       O219   2.247       .  S
In212       O220   2.265       .  S
In212       O221   2.245       .  S
In212       O224   2.233       .  S
C213        O219   1.263       .  A
C213        O221   1.260       .  A
C213        C333   1.491       .  S
O214        C222   1.262       .  A
O215        C222   1.263       .  A
C216        O223   1.261       .  A
C216        O217   1.262       .  A
C216        C422   1.490       .  S
C218        O220   1.263       .  A
C218        O224   1.258       .  A
C218        C486   1.485       .  S
C222        C806   1.487       .  S
In225       O227   2.240       .  S
In225       O228   2.254       .  S
In225       O236   2.235       .  S
In225       O230   2.247       .  S
In225       O232   2.253       .  S
In225       O233   2.262       .  S
In225       O234   2.252       .  S
In225       O237   2.229       .  S
C226        O232   1.260       .  A
C226        O234   1.259       .  A
C226        C298   1.496       .  S
O227        C235   1.261       .  A
O228        C235   1.262       .  A
C229        O236   1.261       .  A
C229        O230   1.263       .  A
C229        C454   1.470       .  S
C231        O233   1.262       .  A
C231        O237   1.258       .  A
C231        C381   1.481       .  S
C235        C646   1.484       .  S
In238       O240   2.240       .  S
In238       O241   2.231       .  S
In238       O249   2.221       .  S
In238       O243   2.236       .  S
In238       O245   2.240       .  S
In238       O246   2.265       .  S
In238       O247   2.228       .  S
In238       O250   2.224       .  S
C239        O245   1.261       .  A
C239        O247   1.260       .  A
C239        C390   1.475       .  S
O240        C248   1.260       .  A
O241        C248   1.262       .  A
C242        O249   1.260       .  A
C242        O243   1.260       .  A
C242        C605   1.467       .  S
C244        O246   1.260       .  A
C244        O250   1.255       .  A
C244        C413   1.473       .  S
C248        C332   1.486       .  S
In251       O253   2.254       .  S
In251       O254   2.253       .  S
In251       O262   2.228       .  S
In251       O256   2.232       .  S
In251       O258   2.274       .  S
In251       O259   2.254       .  S
In251       O260   2.224       .  S
In251       O263   2.245       .  S
C252        O258   1.259       .  A
C252        O260   1.258       .  A
C252        C358   1.493       .  S
O253        C261   1.259       .  A
O254        C261   1.260       .  A
C255        O262   1.261       .  A
C255        O256   1.263       .  A
C255        C742   1.480       .  S
C257        O259   1.262       .  A
C257        O263   1.259       .  A
C257        C550   1.476       .  S
C261        C297   1.493       .  S
In264       O266   2.235       .  S
In264       O267   2.249       .  S
In264       O275   2.237       .  S
In264       O269   2.275       .  S
In264       O271   2.254       .  S
In264       O272   2.265       .  S
In264       O273   2.254       .  S
In264       O276   2.233       .  S
C265        O271   1.263       .  A
C265        O273   1.260       .  A
C265        C331   1.495       .  S
O266        C274   1.259       .  A
O267        C274   1.263       .  A
C268        O275   1.259       .  A
C268        O269   1.261       .  A
C268        C509   1.492       .  S
C270        O272   1.262       .  A
C270        O276   1.259       .  A
C270        C349   1.486       .  S
C274        C710   1.493       .  S
N277        C282   1.355   1_556  A
N277        C281   1.354   1_556  A
N277        H309   1.043       .  S
N278        C285   1.352       .  A
N278        C286   1.353       .  A
N279        C284   1.350       .  A
N279        C283   1.350       .  A
N279        H310   1.043       .  S
N280        C287   1.352       .  A
N280        C288   1.352       .  A
C281        C289   1.386       .  A
C281        C297   1.416       .  A
C282        C298   1.417       .  A
C282        C290   1.387       .  A
C283        C291   1.387       .  A
C283        C300   1.409       .  A
C284        C299   1.410       .  A
C284        C292   1.387       .  A
C285        C297   1.416   1_556  A
C285        C293   1.387       .  A
C286        C300   1.416       .  A
C286        C294   1.387       .  A
C287        C295   1.387       .  A
C287        C298   1.416   1_556  A
C288        C296   1.386       .  A
C288        C299   1.414       .  A
C289        C290   1.377       .  A
C289        H301   1.082       .  S
C290        H302   1.082       .  S
C291        C292   1.375       .  A
C291        H303   1.082       .  S
C292        H304   1.082       .  S
C293        C294   1.375       .  A
C293        H305   1.081       .  S
C294        H306   1.081       .  S
C295        C296   1.372       .  A
C295        H307   1.079       .  S
C296        H308   1.081       .  S
N311        C316   1.350   1_556  A
N311        C315   1.352   1_556  A
N311        H343   1.042       .  S
N312        C319   1.354       .  A
N312        C320   1.352       .  A
N313        C318   1.353       .  A
N313        C317   1.351       .  A
N313        H344   1.042       .  S
N314        C321   1.352       .  A
N314        C322   1.352       .  A
C315        C323   1.387       .  A
C315        C331   1.413       .  A
C316        C332   1.412       .  A
C316        C324   1.388       .  A
C317        C325   1.388       .  A
C317        C334   1.414       .  A
C318        C333   1.411       .  A
C318        C326   1.386       .  A
C319        C331   1.417   1_556  A
C319        C327   1.386       .  A
C320        C334   1.417       .  A
C320        C328   1.387       .  A
C321        C329   1.387       .  A
C321        C332   1.414   1_556  A
C322        C330   1.386       .  A
C322        C333   1.414       .  A
C323        C324   1.377       .  A
C323        H335   1.082       .  S
C324        H336   1.082       .  S
C325        C326   1.376       .  A
C325        H337   1.082       .  S
C326        H338   1.082       .  S
C327        C328   1.376       .  A
C327        H339   1.081       .  S
C328        H340   1.081       .  S
C329        C330   1.374       .  A
C329        H341   1.081       .  S
C330        H342   1.081       .  S
C345        C346   1.399       .  A
C345        C350   1.404       .  A
C345        H355   1.084       .  S
C346        C351   1.486       .  S
C346        C347   1.416       .  A
C347        C348   1.412       .  A
C347        C352   1.519       .  S
C348        C349   1.409       .  A
C348        H353   1.083       .  S
C349        C350   1.420       .  A
C350        C354   1.519       .  S
C351        C356   1.414       .  A
C351        C360   1.402       .  A
C352        F368   1.382       .  S
C352        F369   1.382       .  S
C352        F370   1.385       .  S
C354        F365   1.383       .  S
C354        F366   1.384       .  S
C354        F367   1.384       .  S
C356        C357   1.401       .  A
C356        C361   1.521       .  S
C357        C358   1.407       .  A
C357        H362   1.082       .  S
C358        C359   1.425       .  A
C359        C360   1.412       .  A
C359        C363   1.519       .  S
C360        H364   1.083       .  S
C361        F374   1.385       .  S
C361        F375   1.381       .  S
C361        F376   1.382       .  S
C363        F371   1.385       .  S
C363        F372   1.383       .  S
C363        F373   1.383       .  S
C377        C378   1.401       .  A
C377        C382   1.407       .  A
C377        H387   1.083       .  S
C378        C383   1.479       .  S
C378        C379   1.414       .  A
C379        C380   1.404       .  A
C379        C384   1.521       .  S
C380        C381   1.406       .  A
C380        H385   1.083       .  S
C381        C382   1.419       .  A
C382        C386   1.517       .  S
C383        C388   1.415       .  A
C383        C392   1.400       .  A
C384        F400   1.382       .  S
C384        F401   1.382       .  S
C384        F402   1.385       .  S
C386        F397   1.385   1_554  S
C386        F398   1.383       .  S
C386        F399   1.382       .  S
C388        C389   1.404       .  A
C388        C393   1.520       .  S
C389        C390   1.403       .  A
C389        H394   1.083       .  S
C390        C391   1.419       .  A
C391        C392   1.405       .  A
C391        C395   1.519       .  S
C392        H396   1.083       .  S
C393        F406   1.385       .  S
C393        F407   1.382       .  S
C393        F408   1.382       .  S
C395        F403   1.383       .  S
C395        F404   1.384       .  S
C395        F405   1.385       .  S
C409        C410   1.400       .  A
C409        C414   1.402       .  A
C409        H419   1.084       .  S
C410        C415   1.480       .  S
C410        C411   1.415       .  A
C411        C412   1.409       .  A
C411        C416   1.518       .  S
C412        C413   1.404       .  A
C412        H417   1.083       .  S
C413        C414   1.416       .  A
C414        C418   1.520       .  S
C415        C420   1.413       .  A
C415        C424   1.400       .  A
C416        F432   1.382       .  S
C416        F433   1.381       .  S
C416        F434   1.385       .  S
C418        F429   1.382       .  S
C418        F430   1.384       .  S
C418        F431   1.384       .  S
C420        C421   1.404       .  A
C420        C425   1.522       .  S
C421        C422   1.408       .  A
C421        H426   1.083       .  S
C422        C423   1.423       .  A
C423        C424   1.410       .  A
C423        C427   1.517       .  S
C424        H428   1.083       .  S
C425        F438   1.385       .  S
C425        F439   1.382       .  S
C425        F440   1.382       .  S
C427        F435   1.385       .  S
C427        F436   1.383       .  S
C427        F437   1.382       .  S
C441        C442   1.402       .  A
C441        C446   1.412       .  A
C441        H451   1.083       .  S
C442        C447   1.483       .  S
C442        C443   1.413       .  A
C443        C444   1.401       .  A
C443        C448   1.522       .  S
C444        C445   1.406       .  A
C444        H449   1.082       .  S
C445        C446   1.425       .  A
C446        C450   1.520       .  S
C447        C452   1.416       .  A
C447        C456   1.402       .  A
C448        F464   1.382       .  S
C448        F465   1.382       .  S
C448        F466   1.385       .  S
C450        F461   1.383       .  S
C450        F462   1.385       .  S
C450        F463   1.383       .  S
C452        C453   1.408       .  A
C452        C457   1.519       .  S
C453        C454   1.402       .  A
C453        H458   1.083       .  S
C454        C455   1.412       .  A
C455        C456   1.405       .  A
C455        C459   1.516       .  S
C456        H460   1.083       .  S
C457        F470   1.385       .  S
C457        F471   1.382       .  S
C457        F472   1.382       .  S
C459        F467   1.384       .  S
C459        F468   1.383       .  S
C459        F469   1.383       .  S
C473        C474   1.403       .  A
C473        C478   1.411       .  A
C473        H483   1.083       .  S
C474        C479   1.485       .  S
C474        C475   1.415       .  A
C475        C476   1.403       .  A
C475        C480   1.522       .  S
C476        C477   1.406       .  A
C476        H481   1.083       .  S
C477        C478   1.421       .  A
C478        C482   1.518       .  S
C479        C484   1.415       .  A
C479        C488   1.400       .  A
C480        F496   1.382       .  S
C480        F497   1.382       .  S
C480        F498   1.385       .  S
C482        F493   1.385       .  S
C482        F494   1.383       .  S
C482        F495   1.383       .  S
C484        C485   1.409       .  A
C484        C489   1.519       .  S
C485        C486   1.406       .  A
C485        H490   1.083       .  S
C486        C487   1.422       .  A
C487        C488   1.406       .  A
C487        C491   1.520       .  S
C488        H492   1.083       .  S
C489        F502   1.384       .  S
C489        F503   1.382       .  S
C489        F504   1.383       .  S
C491        F499   1.385       .  S
C491        F500   1.384       .  S
C491        F501   1.382       .  S
C505        C506   1.403       .  A
C505        C510   1.413       .  A
C505        H515   1.083       .  S
C506        C511   1.486       .  S
C506        C507   1.413       .  A
C507        C508   1.404       .  A
C507        C512   1.521       .  S
C508        C509   1.407       .  A
C508        H513   1.083       .  S
C509        C510   1.423       .  A
C510        C514   1.518       .  S
C511        C516   1.415       .  A
C511        C520   1.403       .  A
C512        F528   1.383       .  S
C512        F529   1.382       .  S
C512        F530   1.384       .  S
C514        F525   1.385       .  S
C514        F526   1.383       .  S
C514        F527   1.383       .  S
C516        C517   1.405       .  A
C516        C521   1.520       .  S
C517        C518   1.403       .  A
C517        H522   1.083       .  S
C518        C519   1.419       .  A
C519        C520   1.411       .  A
C519        C523   1.518       .  S
C520        H524   1.083       .  S
C521        F534   1.384       .  S
C521        F535   1.383       .  S
C521        F536   1.382       .  S
C523        F531   1.383       .  S
C523        F532   1.383       .  S
C523        F533   1.384       .  S
C537        C538   1.399       .  A
C537        C542   1.404       .  A
C537        H547   1.083       .  S
C538        C543   1.481       .  S
C538        C539   1.414       .  A
C539        C540   1.408       .  A
C539        C544   1.520       .  S
C540        C541   1.407       .  A
C540        H545   1.083       .  S
C541        C542   1.422       .  A
C542        C546   1.521       .  S
C543        C548   1.415       .  A
C543        C552   1.402       .  A
C544        F560   1.382       .  S
C544        F561   1.382       .  S
C544        F562   1.384       .  S
C546        F557   1.385       .  S
C546        F558   1.383       .  S
C546        F559   1.384       .  S
C548        C549   1.407       .  A
C548        C553   1.519       .  S
C549        C550   1.404       .  A
C549        H554   1.083       .  S
C550        C551   1.417       .  A
C551        C552   1.405       .  A
C551        C555   1.518       .  S
C552        H556   1.083       .  S
C553        F566   1.385       .  S
C553        F567   1.382       .  S
C553        F568   1.382       .  S
C555        F563   1.382       .  S
C555        F564   1.383       .  S
C555        F565   1.386       .  S
C569        C570   1.400       .  A
C569        C574   1.409       .  A
C569        H579   1.083       .  S
C570        C575   1.478       .  S
C570        C571   1.413       .  A
C571        C572   1.401       .  A
C571        C576   1.522       .  S
C572        C573   1.407       .  A
C572        H577   1.082       .  S
C573        C574   1.424       .  A
C574        C578   1.519       .  S
C575        C580   1.414       .  A
C575        C584   1.398       .  A
C576        F592   1.382       .  S
C576        F593   1.382       .  S
C576        F594   1.385       .  S
C578        F589   1.383       .  S
C578        F590   1.385       .  S
C578        F591   1.383       .  S
C580        C581   1.409       .  A
C580        C585   1.519       .  S
C581        C582   1.406       .  A
C581        H586   1.083       .  S
C582        C583   1.419       .  A
C583        C584   1.402       .  A
C583        C587   1.520       .  S
C584        H588   1.084       .  S
C585        F598   1.384       .  S
C585        F599   1.383       .  S
C585        F600   1.382       .  S
C587        F595   1.385       .  S
C587        F596   1.384       .  S
C587        F597   1.382       .  S
C601        C602   1.403       .  A
C601        C606   1.405       .  A
C601        H611   1.083       .  S
C602        C607   1.479       .  S
C602        C603   1.415       .  A
C603        C604   1.402       .  A
C603        C608   1.519       .  S
C604        C605   1.400       .  A
C604        H609   1.084       .  S
C605        C606   1.415       .  A
C606        C610   1.519       .  S
C607        C612   1.413       .  A
C607        C616   1.401       .  A
C608        F624   1.382       .  S
C608        F625   1.382       .  S
C608        F626   1.385   1_554  S
C610        F621   1.383       .  S
C610        F622   1.384       .  S
C610        F623   1.384       .  S
C612        C613   1.405       .  A
C612        C617   1.519       .  S
C613        C614   1.404       .  A
C613        H618   1.083       .  S
C614        C615   1.419       .  A
C615        C616   1.406       .  A
C615        C619   1.520       .  S
C616        H620   1.083       .  S
C617        F630   1.384       .  S
C617        F631   1.382       .  S
C617        F632   1.382       .  S
C619        F627   1.384       .  S
C619        F628   1.384       .  S
C619        F629   1.382       .  S
C633        C634   1.401       .  A
C633        C638   1.410       .  A
C633        H643   1.083       .  S
C634        C639   1.484       .  S
C634        C635   1.413       .  A
C635        C636   1.404       .  A
C635        C640   1.520       .  S
C636        C637   1.407       .  A
C636        H641   1.082       .  S
C637        C638   1.424       .  A
C638        C642   1.520       .  S
C639        C644   1.414       .  A
C639        C648   1.402       .  A
C640        F656   1.382       .  S
C640        F657   1.382       .  S
C640        F658   1.385       .  S
C642        F653   1.383       .  S
C642        F654   1.385       .  S
C642        F655   1.383       .  S
C644        C645   1.406       .  A
C644        C649   1.520       .  S
C645        C646   1.406       .  A
C645        H650   1.083       .  S
C646        C647   1.420       .  A
C647        C648   1.409       .  A
C647        C651   1.518       .  S
C648        H652   1.083       .  S
C649        F662   1.385       .  S
C649        F663   1.382       .  S
C649        F664   1.382       .  S
C651        F659   1.385       .  S
C651        F660   1.384       .  S
C651        F661   1.382       .  S
C665        C666   1.400       .  A
C665        C670   1.404       .  A
C665        H675   1.084       .  S
C666        C671   1.483   1_565  S
C666        C667   1.414       .  A
C667        C668   1.407       .  A
C667        C672   1.518       .  S
C668        C669   1.406       .  A
C668        H673   1.083       .  S
C669        C670   1.422       .  A
C670        C674   1.521       .  S
C671        C676   1.416       .  A
C671        C680   1.402       .  A
C672        F688   1.382       .  S
C672        F689   1.382       .  S
C672        F690   1.385   1_554  S
C674        F685   1.383       .  S
C674        F686   1.385       .  S
C674        F687   1.384       .  S
C676        C677   1.403       .  A
C676        C681   1.521       .  S
C677        C678   1.403       .  A
C677        H682   1.083       .  S
C678        C679   1.420       .  A
C679        C680   1.408       .  A
C679        C683   1.519       .  S
C680        H684   1.083       .  S
C681        F694   1.385       .  S
C681        F695   1.382   1_545  S
C681        F696   1.382   1_545  S
C683        F691   1.384       .  S
C683        F692   1.384       .  S
C683        F693   1.383       .  S
C697        C698   1.399       .  A
C697        C702   1.407       .  A
C697        H707   1.083       .  S
C698        C703   1.486       .  S
C698        C699   1.416       .  A
C699        C700   1.408       .  A
C699        C704   1.519       .  S
C700        C701   1.406       .  A
C700        H705   1.083       .  S
C701        C702   1.423       .  A
C702        C706   1.517       .  S
C703        C708   1.415       .  A
C703        C712   1.399       .  A
C704        F720   1.382       .  S
C704        F721   1.382       .  S
C704        F722   1.384       .  S
C706        F717   1.383       .  S
C706        F718   1.385       .  S
C706        F719   1.382       .  S
C708        C709   1.408       .  A
C708        C713   1.520       .  S
C709        C710   1.409       .  A
C709        H714   1.082       .  S
C710        C711   1.425       .  A
C711        C712   1.406       .  A
C711        C715   1.520       .  S
C712        H716   1.083       .  S
C713        F726   1.385       .  S
C713        F727   1.382       .  S
C713        F728   1.382       .  S
C715        F723   1.385       .  S
C715        F724   1.383       .  S
C715        F725   1.384       .  S
C729        C730   1.402       .  A
C729        C734   1.407       .  A
C729        H739   1.083       .  S
C730        C735   1.483       .  S
C730        C731   1.417       .  A
C731        C732   1.404       .  A
C731        C736   1.520       .  S
C732        C733   1.401       .  A
C732        H737   1.084       .  S
C733        C734   1.416       .  A
C734        C738   1.518       .  S
C735        C740   1.416       .  A
C735        C744   1.401       .  A
C736        F752   1.382       .  S
C736        F753   1.383       .  S
C736        F754   1.385       .  S
C738        F749   1.383       .  S
C738        F750   1.384       .  S
C738        F751   1.383       .  S
C740        C741   1.404       .  A
C740        C745   1.520       .  S
C741        C742   1.405       .  A
C741        H746   1.083       .  S
C742        C743   1.419       .  A
C743        C744   1.406       .  A
C743        C747   1.520       .  S
C744        H748   1.083       .  S
C745        F758   1.385       .  S
C745        F759   1.381       .  S
C745        F760   1.382       .  S
C747        F755   1.384       .  S
C747        F756   1.384       .  S
C747        F757   1.383       .  S
C761        C762   1.400       .  A
C761        C766   1.403       .  A
C761        H771   1.084       .  S
C762        C767   1.485   1_545  S
C762        C763   1.416       .  A
C763        C764   1.412       .  A
C763        C768   1.518       .  S
C764        C765   1.405       .  A
C764        H769   1.083       .  S
C765        C766   1.418       .  A
C766        C770   1.520       .  S
C767        C772   1.414       .  A
C767        C776   1.401       .  A
C768        F784   1.382       .  S
C768        F785   1.382   1_554  S
C768        F786   1.385   1_554  S
C770        F781   1.383       .  S
C770        F782   1.384       .  S
C770        F783   1.384       .  S
C772        C773   1.404       .  A
C772        C777   1.523       .  S
C773        C774   1.409       .  A
C773        H778   1.082       .  S
C774        C775   1.425       .  A
C775        C776   1.412       .  A
C775        C779   1.518       .  S
C776        H780   1.083       .  S
C777        F790   1.385       .  S
C777        F791   1.382   1_565  S
C777        F792   1.382   1_565  S
C779        F787   1.385       .  S
C779        F788   1.383       .  S
C779        F789   1.383       .  S
C793        C794   1.401       .  A
C793        C798   1.410       .  A
C793        H803   1.083       .  S
C794        C799   1.484       .  S
C794        C795   1.413       .  A
C795        C796   1.403       .  A
C795        C800   1.520       .  S
C796        C797   1.407       .  A
C796        H801   1.082       .  S
C797        C798   1.423       .  A
C798        C802   1.519       .  S
C799        C804   1.414       .  A
C799        C808   1.400       .  A
C800        F816   1.382       .  S
C800        F817   1.382       .  S
C800        F818   1.385       .  S
C802        F813   1.383       .  S
C802        F814   1.385       .  S
C802        F815   1.384       .  S
C804        C805   1.407       .  A
C804        C809   1.520       .  S
C805        C806   1.407       .  A
C805        H810   1.083       .  S
C806        C807   1.421       .  A
C807        C808   1.408       .  A
C807        C811   1.518       .  S
C808        H812   1.083       .  S
C809        F822   1.384       .  S
C809        F823   1.383       .  S
C809        F824   1.382       .  S
C811        F819   1.385       .  S
C811        F820   1.384       .  S
C811        F821   1.383       .  S
C825        C826   1.402       .  A
C825        C830   1.412       .  A
C825        H835   1.083       .  S
C826        C831   1.486       .  S
C826        C827   1.415       .  A
C827        C828   1.404       .  A
C827        C832   1.520       .  S
C828        C829   1.404       .  A
C828        H833   1.083       .  S
C829        C830   1.423       .  A
C830        C834   1.519       .  S
C831        C836   1.415       .  A
C831        C840   1.403       .  A
C832        F848   1.382       .  S
C832        F849   1.381       .  S
C832        F850   1.385       .  S
C834        F845   1.383       .  S
C834        F846   1.385       .  S
C834        F847   1.383       .  S
C836        C837   1.405       .  A
C836        C841   1.520       .  S
C837        C838   1.404       .  A
C837        H842   1.083       .  S
C838        C839   1.419       .  A
C839        C840   1.410       .  A
C839        C843   1.519   1_455  S
C840        H844   1.083       .  S
C841        F854   1.385       .  S
C841        F855   1.382       .  S
C841        F856   1.381       .  S
C843        F851   1.383       .  S
C843        F852   1.384   1_655  S
C843        F853   1.384       .  S
C857        C858   1.400       .  A
C857        C862   1.406       .  A
C857        H867   1.083       .  S
C858        C863   1.483       .  S
C858        C859   1.414       .  A
C859        C860   1.407       .  A
C859        C864   1.520       .  S
C860        C861   1.406       .  A
C860        H865   1.083       .  S
C861        C862   1.421       .  A
C862        C866   1.519       .  S
C863        C868   1.417       .  A
C863        C872   1.401       .  A
C864        F880   1.382       .  S
C864        F881   1.383       .  S
C864        F882   1.384       .  S
C866        F877   1.382       .  S
C866        F878   1.385       .  S
C866        F879   1.383       .  S
C868        C869   1.406       .  A
C868        C873   1.521       .  S
C869        C870   1.402       .  A
C869        H874   1.083       .  S
C870        C871   1.419       .  A
C871        C872   1.407       .  A
C871        C875   1.520       .  S
C872        H876   1.083       .  S
C873        F886   1.384       .  S
C873        F887   1.381       .  S
C873        F888   1.382       .  S
C875        F883   1.385       .  S
C875        F884   1.383       .  S
C875        F885   1.382       .  S
C889        C890   1.402       .  A
C889        C894   1.411       .  A
C889        H899   1.083       .  S
C890        C895   1.483       .  S
C890        C891   1.414       .  A
C891        C892   1.404       .  A
C891        C896   1.522       .  S
C892        C893   1.406       .  A
C892        H897   1.083       .  S
C893        C894   1.421       .  A
C894        C898   1.519       .  S
C895        C900   1.415       .  A
C895        C904   1.401       .  A
C896        F912   1.382       .  S
C896        F913   1.381       .  S
C896        F914   1.384       .  S
C898        F909   1.385   1_455  S
C898        F910   1.383   1_455  S
C898        F911   1.383   1_455  S
C900        C901   1.408       .  A
C900        C905   1.521       .  S
C901        C902   1.405       .  A
C901        H906   1.083       .  S
C902        C903   1.418       .  A
C903        C904   1.408       .  A
C903        C907   1.518       .  S
C904        H908   1.083       .  S
C905        F918   1.384       .  S
C905        F919   1.382       .  S
C905        F920   1.382       .  S
C907        F915   1.384       .  S
C907        F916   1.382       .  S
C907        F917   1.384       .  S
C921        C922   1.400       .  A
C921        C926   1.408       .  A
C921        H931   1.083       .  S
C922        C927   1.484   1_545  S
C922        C923   1.415       .  A
C923        C924   1.404       .  A
C923        C928   1.522       .  S
C924        C925   1.408       .  A
C924        H929   1.082       .  S
C925        C926   1.423       .  A
C926        C930   1.518       .  S
C927        C932   1.416       .  A
C927        C936   1.399       .  A
C928        F944   1.382   1_545  S
C928        F945   1.383   1_545  S
C928        F946   1.385       .  S
C930        F941   1.383       .  S
C930        F942   1.384       .  S
C930        F943   1.383       .  S
C932        C933   1.407       .  A
C932        C937   1.519       .  S
C933        C934   1.404       .  A
C933        H938   1.083       .  S
C934        C935   1.422       .  A
C935        C936   1.406       .  A
C935        C939   1.520       .  S
C936        H940   1.083       .  S
C937        F950   1.384       .  S
C937        F951   1.383       .  S
C937        F952   1.383   1_565  S
C939        F947   1.385       .  S
C939        F948   1.383       .  S
C939        F949   1.382       .  S
C953        C954   1.402       .  A
C953        C958   1.407       .  A
C953        H963   1.083       .  S
C954        C959   1.482       .  S
C954        C955   1.415       .  A
C955        C956   1.405       .  A
C955        C960   1.520       .  S
C956        C957   1.403       .  A
C956        H961   1.083       .  S
C957        C958   1.419       .  A
C958        C962   1.520       .  S
C959        C964   1.414       .  A
C959        C968   1.400       .  A
C960        F976   1.382       .  S
C960        F977   1.382       .  S
C960        F978   1.384       .  S
C962        F973   1.382       .  S
C962        F974   1.385       .  S
C962        F975   1.384       .  S
C964        C965   1.406       .  A
C964        C969   1.520       .  S
C965        C966   1.405       .  A
C965        H970   1.083       .  S
C966        C967   1.420       .  A
C967        C968   1.406       .  A
C967        C971   1.519       .  S
C968        H972   1.083       .  S
C969        F982   1.384       .  S
C969        F983   1.382       .  S
C969        F984   1.382       .  S
C971        F979   1.385       .  S
C971        F980   1.383       .  S
C971        F981   1.383       .  S
C985        C986   1.401       .  A
C985        C990   1.409       .  A
C985        H995   1.083       .  S
C986        C991   1.480       .  S
C986        C987   1.414       .  A
C987        C988   1.403       .  A
C987        C992   1.522       .  S
C988        C989   1.404       .  A
C988        H993   1.083       .  S
C989        C990   1.420       .  A
C990        C994   1.518       .  S
C991        C996   1.413       .  A
C991       C1000   1.399       .  A
C992       F1008   1.382       .  S
C992       F1009   1.382       .  S
C992       F1010   1.385       .  S
C994       F1005   1.385       .  S
C994       F1006   1.383       .  S
C994       F1007   1.383       .  S
C996        C997   1.406       .  A
C996       C1001   1.521       .  S
C997        C998   1.407       .  A
C997       H1002   1.083       .  S
C998        C999   1.422       .  A
C999       C1000   1.408       .  A
C999       C1003   1.518       .  S
C1000      H1004   1.083       .  S
C1001      F1014   1.384       .  S
C1001      F1015   1.383       .  S
C1001      F1016   1.382       .  S
C1003      F1011   1.383       .  S
C1003      F1012   1.379       .  S
C1003      F1013   1.385       .  S
C1017      C1018   1.399       .  A
C1017      C1022   1.407       .  A
C1017      H1027   1.083       .  S
C1018      C1023   1.481       .  S
C1018      C1019   1.414       .  A
C1019      C1020   1.407       .  A
C1019      C1024   1.520       .  S
C1020      C1021   1.407       .  A
C1020      H1025   1.083       .  S
C1021      C1022   1.423       .  A
C1022      C1026   1.520       .  S
C1023      C1028   1.413       .  A
C1023      C1032   1.400       .  A
C1024      F1040   1.382       .  S
C1024      F1041   1.382       .  S
C1024      F1042   1.384       .  S
C1026      F1037   1.382       .  S
C1026      F1038   1.385       .  S
C1026      F1039   1.384       .  S
C1028      C1029   1.404       .  A
C1028      C1033   1.519       .  S
C1029      C1030   1.406       .  A
C1029      H1034   1.083       .  S
C1030      C1031   1.423       .  A
C1031      C1032   1.406       .  A
C1031      C1035   1.521       .  S
C1032      H1036   1.083       .  S
C1033      F1046   1.385       .  S
C1033      F1047   1.382       .  S
C1033      F1048   1.382       .  S
C1035      F1043   1.385       .  S
C1035      F1044   1.384       .  S
C1035      F1045   1.383       .  S
C1049      C1050   1.400       .  A
C1049      C1054   1.406       .  A
C1049      H1059   1.083       .  S
C1050      C1055   1.487       .  S
C1050      C1051   1.416       .  A
C1051      C1052   1.412       .  A
C1051      C1056   1.520       .  S
C1052      C1053   1.407       .  A
C1052      H1057   1.083       .  S
C1053      C1054   1.422       .  A
C1054      C1058   1.521       .  S
C1055      C1060   1.415       .  A
C1055      C1064   1.402       .  A
C1056      F1072   1.382       .  S
C1056      F1073   1.382       .  S
C1056      F1074   1.384       .  S
C1058      F1069   1.385       .  S
C1058      F1070   1.383       .  S
C1058      F1071   1.384       .  S
C1060      C1061   1.409       .  A
C1060      C1065   1.519       .  S
C1061      C1062   1.405       .  A
C1061      H1066   1.083       .  S
C1062      C1063   1.420       .  A
C1063      C1064   1.407       .  A
C1063      C1067   1.520       .  S
C1064      H1068   1.083       .  S
C1065      F1078   1.384       .  S
C1065      F1079   1.382       .  S
C1065      F1080   1.381       .  S
C1067      F1075   1.383       .  S
C1067      F1076   1.384       .  S
C1067      F1077   1.385       .  S
C1081      C1082   1.402       .  A
C1081      C1086   1.411       .  A
C1081      H1091   1.083       .  S
C1082      C1087   1.485   1_545  S
C1082      C1083   1.415       .  A
C1083      C1084   1.403       .  A
C1083      C1088   1.521       .  S
C1084      C1085   1.405       .  A
C1084      H1089   1.083       .  S
C1085      C1086   1.422       .  A
C1086      C1090   1.518       .  S
C1087      C1092   1.415       .  A
C1087      C1096   1.399       .  A
C1088      F1104   1.382       .  S
C1088      F1105   1.382   1_545  S
C1088      F1106   1.384       .  S
C1090      F1101   1.383       .  S
C1090      F1102   1.385       .  S
C1090      F1103   1.383       .  S
C1092      C1093   1.411       .  A
C1092      C1097   1.519       .  S
C1093      C1094   1.408       .  A
C1093      H1098   1.083       .  S
C1094      C1095   1.422       .  A
C1095      C1096   1.403       .  A
C1095      C1099   1.521       .  S
C1096      H1100   1.083       .  S
C1097      F1110   1.385       .  S
C1097      F1111   1.382       .  S
C1097      F1112   1.382       .  S
C1099      F1107   1.384       .  S
C1099      F1108   1.384       .  S
C1099      F1109   1.383       .  S
