geometry optimzed in LAMMPS
_audit_creation_date              2020-12-01 
_audit_creation_method            'lammps2cif' 
_symmetry_space_group_name_H-M    'P1' 
_symmetry_Int_Tables_number       1 
_symmetry_cell_setting            triclinic 
loop_ 
_symmetry_equiv_pos_as_xyz 
  x,y,z 
_cell_length_a                    50.74920294 
_cell_length_b                    50.78700927716859 
_cell_length_c                    38.26291643916774 
_cell_angle_alpha                 90.17384486222076 
_cell_angle_beta                  90.08233280427747 
_cell_angle_gamma                 91.25112555100478 
loop_ 
_atom_site_label 
_atom_site_type_symbol 
_atom_site_fract_x 
_atom_site_fract_y 
_atom_site_fract_z 
_atom_site_charge 
N1          N  0.98327839  0.76593707  0.48138248    -0.02600
C2          C  0.98387894  0.73948738  0.47609329     0.00000
C3          C  0.98346055  0.72617319  0.00744853    -0.22900
C4          C  0.98269958  0.74487681  0.03318720    -0.23100
C5          C  0.98270706  0.76905740  0.01667493    -0.00100
H6          H  0.98391606  0.70506489  0.01114043     0.13700
H7          H  0.98291346  0.74124385  0.06104345     0.13700
N8          N  0.02432121  0.23315138  0.02166429    -0.02600
C9          C  0.02217744  0.25947923  0.02702333     0.00000
C10         C  0.02178171  0.27288099  0.49572473    -0.22900
C11         C  0.02377267  0.25435411  0.46991218    -0.23100
C12         C  0.02529990  0.23025957  0.48634049    -0.00100
H13         H  0.02050383  0.29395017  0.49215452     0.13700
H14         H  0.02385078  0.25801752  0.44205834     0.13700
N15         N  0.73194796  0.02947716  0.47423685    -0.02600
C16         C  0.75488716  0.04151611  0.46430980     0.00000
C17         C  0.76084212  0.06279249  0.98575932    -0.22900
C18         C  0.74104751  0.06392429  0.01002356    -0.23100
C19         C  0.72375732  0.04334322  0.00253124    -0.00100
H20         H  0.77813760  0.07560576  0.98450587     0.13700
H21         H  0.73963187  0.07793611  0.03127170     0.13700
N22         N  0.27699568  0.98224423  0.04310210    -0.02600
C23         C  0.25221123  0.97201705  0.04670239     0.00000
C24         C  0.24416928  0.95907499  0.51660312    -0.22900
C25         C  0.26462164  0.96128627  0.49344014    -0.23100
C26         C  0.28440688  0.97549014  0.51020739    -0.00100
H27         H  0.22508492  0.94987980  0.51162126     0.13700
H28         H  0.26494986  0.95370175  0.46697921     0.13700
N29         N  0.47998595  0.72885251  0.48247995    -0.02600
C30         C  0.47186506  0.75376758  0.47696302     0.00000
C31         C  0.46309872  0.76496091  0.00760039    -0.22900
C32         C  0.46584207  0.74634409  0.03313687    -0.23100
C33         C  0.47617229  0.72450484  0.01710097    -0.00100
H34         H  0.45629134  0.78483700  0.01115986     0.13700
H35         H  0.46098470  0.74849901  0.06051709     0.13700
N36         N  0.50946881  0.26355865  0.02288585    -0.02600
C37         C  0.51438833  0.23794229  0.02999614     0.00000
C38         C  0.51942137  0.22416711  0.49970645    -0.22900
C39         C  0.51750760  0.24175558  0.47279474    -0.23100
C40         C  0.51154776  0.26580822  0.48753860    -0.00100
H41         H  0.52364088  0.20343331  0.49744072     0.13700
H42         H  0.52061896  0.23754509  0.44538208     0.13700
N43         N  0.22914226  0.51261506  0.01553889    -0.02600
C44         C  0.25516738  0.51514262  0.02327256     0.00000
C45         C  0.26909941  0.52531723  0.49527078    -0.22900
C46         C  0.25111849  0.52917380  0.46910305    -0.23100
C47         C  0.22683989  0.52138969  0.48221343    -0.00100
H48         H  0.29015219  0.52904953  0.49387535     0.13700
H49         H  0.25527434  0.53671504  0.44321870     0.13700
N50         N  0.75919481  0.46956823  0.47369520    -0.02600
C51         C  0.73375453  0.46264268  0.46678616     0.00000
C52         C  0.72035552  0.45625040  0.99702810    -0.22900
C53         C  0.73801782  0.45944003  0.02385122    -0.23100
C54         C  0.76158719  0.46757648  0.00898154    -0.00100
H55         H  0.69960184  0.45121847  0.99944042     0.13700
H56         H  0.73397359  0.45673715  0.05139064     0.13700
O57         O  0.47388037  0.51219002  0.19481180    -0.87500
C58         C  0.46579861  0.54150415  0.29376847     0.88600
Mg59       Mg  0.46274221  0.47291472  0.17966796     1.58100
O60         O  0.53069679  0.52844953  0.27001568    -0.87200
O61         O  0.50908716  0.53821062  0.19426595    -0.74500
C62         C  0.51211312  0.40135041  0.30775839     0.93600
O63         O  0.43036841  0.49701701  0.25250366    -0.74300
O64         O  0.49586257  0.39975669  0.28251745    -0.81900
Mg65       Mg  0.44561945  0.53390369  0.22395888     1.58000
C66         C  0.57929024  0.48868854  0.33379973     0.93500
O67         O  0.45696593  0.57134878  0.19435076    -0.80100
H68         H  0.56134464  0.53371425  0.23780054    -0.05500
C69         C  0.49124026  0.47177791  0.32427069     0.88500
O70         O  0.50596062  0.46067875  0.18540559    -0.74600
O71         O  0.47420250  0.54147724  0.26344106    -0.87400
O72         O  0.56601061  0.50969617  0.33330799    -0.80200
C73         C  0.52295768  0.58385773  0.32836691     0.93600
C74         C  0.47225383  0.59146705  0.19630407     0.93500
Mg75       Mg  0.53923399  0.45912362  0.28171067     1.58000
O76         O  0.52676711  0.42173453  0.31261446    -0.80100
O77         O  0.55515362  0.49575906  0.25269865    -0.74400
O78         O  0.51265563  0.58489675  0.29793493    -0.80200
O79         O  0.41428236  0.52593877  0.18434484    -0.81900
O80         O  0.47420543  0.40912712  0.20496511    -0.80200
C81         C  0.54965090  0.52007568  0.25328600     0.87900
O82         O  0.51131825  0.45215574  0.24106292    -0.87400
O83         O  0.51081777  0.48146036  0.30935921    -0.87500
O84         O  0.47584860  0.45509149  0.30928781    -0.74500
Mg85       Mg  0.51035860  0.56011403  0.24703129     1.58000
O86         O  0.53278350  0.56282512  0.34022510    -0.81900
H87         H  0.49731127  0.51564233  0.15302276    -0.05600
O88         O  0.45454111  0.46470143  0.23343855    -0.87200
H89         H  0.42420421  0.45877686  0.26594559    -0.05500
H90         H  0.54003185  0.44732108  0.20600862    -0.05600
C91         C  0.43573301  0.47272533  0.25072966     0.87900
C92         C  0.49326087  0.52187639  0.17948024     0.88500
C93         C  0.51990511  0.45286011  0.21081610     0.88500
H94         H  0.48676076  0.47811732  0.35055312    -0.05600
O95         O  0.47967863  0.53367013  0.31919309    -0.74600
Mg96       Mg  0.47532787  0.43328592  0.25617103     1.58000
H97         H  0.44586301  0.54762257  0.29862119    -0.05600
C98         C  0.40571635  0.50494939  0.16981641     0.93500
O99         O  0.45364164  0.43068783  0.16260125    -0.81900
C100        C  0.46426147  0.40999788  0.17435051     0.93600
O101        O  0.49025124  0.59358569  0.21938913    -0.81900
Mg102      Mg  0.52263033  0.52077475  0.32390928     1.58200
O103        O  0.41913310  0.48396445  0.16886214    -0.80200
O104        O  0.57022973  0.46696828  0.32186858    -0.81900
O105        O  0.51975924  0.01994658  0.20236207    -0.87500
C106        C  0.55738253  0.02301235  0.29633169     0.88600
Mg107      Mg  0.48067013  0.03383177  0.19541746     1.58100
O108        O  0.53686575  0.95919379  0.27257966    -0.87200
O109        O  0.54113151  0.98293524  0.19657697    -0.74500
C110        C  0.41606416  0.98054322  0.32932131     0.93600
O111        O  0.51438383  0.06217096  0.26429034    -0.74300
O112        O  0.41437019  0.99963282  0.30804463    -0.81900
Mg113      Mg  0.54684931  0.04594701  0.22887227     1.58000
C114        C  0.49885414  0.91008660  0.34123863     0.93500
O115        O  0.58047415  0.03338550  0.19269779    -0.80100
H116        H  0.53783432  0.92901904  0.23897739    -0.05500
C117        C  0.48883016  0.99849024  0.33754295     0.88500
O118        O  0.46465352  0.99112849  0.20006428    -0.74600
O119        O  0.55444683  0.01562301  0.26570147    -0.87400
O120        O  0.52058546  0.92315437  0.33924149    -0.80200
C121        C  0.59754869  0.96410060  0.32152922     0.93600
C122        C  0.59897759  0.01684985  0.19171086     0.93500
Mg123      Mg  0.46885527  0.95243152  0.29290507     1.58000
O124        O  0.43478007  0.96432360  0.32799311    -0.80100
O125        O  0.50149187  0.93615837  0.25833390    -0.74400
O126        O  0.59621124  0.97418446  0.29111419    -0.80200
O127        O  0.53873798  0.07917089  0.19197193    -0.81900
O128        O  0.41841315  0.02358974  0.22950619    -0.80200
C129        C  0.52612065  0.94078285  0.25639434     0.87900
O130        O  0.46116627  0.98299673  0.25612817    -0.87400
O131        O  0.49529447  0.97906134  0.32009488    -0.87500
O132        O  0.47302723  0.01554099  0.32591323    -0.74500
Mg133      Mg  0.56764127  0.97893630  0.24509458     1.58000
O134        O  0.57726359  0.95475415  0.33715126    -0.81900
H135        H  0.51645407  0.99719904  0.15979050    -0.05600
O136        O  0.47839931  0.03973397  0.25055661    -0.87200
H137        H  0.47851893  0.06921109  0.28534537    -0.05500
H138        H  0.45028825  0.95659879  0.21968446    -0.05600
C139        C  0.48973887  0.05764103  0.26711711     0.87900
C140        C  0.52556825  0.00023645  0.18504309     0.88500
C141        C  0.45815932  0.97611052  0.22530881     0.88500
H142        H  0.49756808  0.00151425  0.36306289    -0.05600
O143        O  0.55041637  0.00864226  0.32198357    -0.74600
Mg144      Mg  0.44704922  0.01937391  0.27679824     1.58000
H145        H  0.56537632  0.04256159  0.30139908    -0.05600
C146        C  0.51727203  0.08928860  0.18220447     0.93500
O147        O  0.43848512  0.04621113  0.18697377    -0.81900
C148        C  0.41791669  0.03535488  0.20002563     0.93600
O149        O  0.60035602  0.99805447  0.21344137    -0.81900
Mg150      Mg  0.53466129  0.96611236  0.32785066     1.58200
O151        O  0.49507378  0.07719087  0.18553756    -0.80200
O152        O  0.47727837  0.91913366  0.32992129    -0.81900
O153        O  0.01800386  0.98286533  0.19441452    -0.87500
C154        C  0.02253631  0.95259415  0.29296691     0.88600
Mg155      Mg  0.03449742  0.02076506  0.18128588     1.58100
O156        O  0.95925610  0.97283431  0.27009793    -0.87200
O157        O  0.97983596  0.96142495  0.19438942    -0.74500
C158        C  0.99324622  0.09498639  0.31244410     0.93600
O159        O  0.06368963  0.99100224  0.25154114    -0.74300
O160        O  0.01025732  0.09543084  0.28802972    -0.81900
Mg161      Mg  0.04320116  0.95680700  0.22176603     1.58000
C162        C  0.91501795  0.01754392  0.33421828     0.93500
O163        O  0.02573443  0.92142252  0.19013914    -0.80100
H164        H  0.92864812  0.97101458  0.23714787    -0.05500
C165        C  0.00470601  0.02326690  0.32585398     0.88500
O166        O  0.99348948  0.03877003  0.18689059    -0.74600
O167        O  0.01432844  0.95340846  0.26251813    -0.87400
O168        O  0.92591479  0.99511432  0.33462947    -0.80200
C169        C  0.96118515  0.91619966  0.32764292     0.93600
C170        C  0.00842234  0.90325857  0.19515265     0.93500
Mg171      Mg  0.95900896  0.04226256  0.28228010     1.58000
O172        O  0.97553635  0.07695394  0.31452132    -0.80100
O173        O  0.93922842  0.00815202  0.25199111    -0.74400
O174        O  0.97172643  0.91450305  0.29748202    -0.80200
O175        O  0.07527645  0.96095916  0.18133203    -0.81900
O176        O  0.03152628  0.08570810  0.20901835    -0.80200
C177        C  0.94165524  0.98330268  0.25292497     0.87900
O178        O  0.98848097  0.04638244  0.24286344    -0.87400
O179        O  0.98401145  0.01657656  0.31065851    -0.87500
O180        O  0.02243709  0.03759339  0.31132855    -0.74500
Mg181      Mg  0.97628452  0.93930573  0.24699657     1.58000
O182        O  0.95300277  0.93797034  0.33956967    -0.81900
H183        H  0.99349822  0.98306480  0.15342432    -0.05600
O184        O  0.04326411  0.02664857  0.23538639    -0.87200
H185        H  0.07443353  0.02787442  0.26745505    -0.05500
H186        H  0.96135171  0.05612842  0.20749643    -0.05600
C187        C  0.06112678  0.01586994  0.25171797     0.87900
C188        C  0.99723750  0.97599001  0.17955041     0.88500
C189        C  0.98037999  0.04771507  0.21242318     0.88500
H190        H  0.00817193  0.01604603  0.35197930    -0.05600
O191        O  0.00920294  0.96136495  0.31844854    -0.74600
Mg192      Mg  0.02646569  0.06027155  0.25939072     1.58000
H193        H  0.04177827  0.94466548  0.29797557    -0.05600
C194        C  0.08669149  0.98150152  0.16919214     0.93500
O195        O  0.04969996  0.06180132  0.16677135    -0.81900
C196        C  0.04203375  0.08377520  0.17878414     0.93600
O197        O  0.99257128  0.90385205  0.22072079    -0.81900
Mg198      Mg  0.96781987  0.97887948  0.32423653     1.58200
O199        O  0.07613177  0.00408982  0.17054352    -0.80200
O200        O  0.92629963  0.03777433  0.32111444    -0.81900
O201        O  0.97996324  0.48105043  0.18710160    -0.87500
C202        C  0.94852816  0.46807848  0.28300121     0.88600
Mg203      Mg  0.02006901  0.47341408  0.17491145     1.58100
O204        O  0.96022885  0.53474527  0.26391699    -0.87200
O205        O  0.95312529  0.51449033  0.18657724    -0.74500
C206        C  0.08708869  0.52517814  0.30787424     0.93600
O207        O  0.99448187  0.43734813  0.24378946    -0.74300
O208        O  0.08871267  0.50948780  0.28212319    -0.81900
Mg209      Mg  0.95819219  0.45019921  0.21283958     1.58000
C210        C  0.99541984  0.58469952  0.33441668     0.93500
O211        O  0.92149282  0.45989675  0.18080055    -0.80100
H212        H  0.95474022  0.56605276  0.23336646    -0.05500
C213        C  0.01693354  0.49922152  0.32062396     0.88500
O214        O  0.03059265  0.51745322  0.18309579    -0.74600
O215        O  0.94848576  0.47723377  0.25308664    -0.87400
O216        O  0.97598613  0.56858519  0.33121756    -0.80200
C217        C  0.90372681  0.52075175  0.31906279     0.93600
C218        C  0.90089341  0.47369963  0.18265551     0.93500
Mg219      Mg  0.02898319  0.54944967  0.28119779     1.58000
O220        O  0.06665104  0.53888309  0.31323236    -0.80100
O221        O  0.99229962  0.56284112  0.25094483    -0.74400
O222        O  0.90307880  0.51136550  0.28798995    -0.80200
O223        O  0.96884179  0.41964924  0.17259773    -0.81900
O224        O  0.08295163  0.48780200  0.20472242    -0.80200
C225        C  0.96831441  0.55503574  0.24912299     0.87900
O226        O  0.03799342  0.52283198  0.23930284    -0.87400
O227        O  0.00699402  0.51808667  0.30550765    -0.87500
O228        O  0.03419513  0.48515428  0.30602460    -0.74500
Mg229      Mg  0.92955270  0.51262418  0.23795267     1.58000
O230        O  0.92442144  0.53159247  0.33182261    -0.81900
H231        H  0.97727646  0.50536195  0.14630175    -0.05600
O232        O  0.02632140  0.46504290  0.22897470    -0.87200
H233        H  0.03221483  0.43453501  0.26075282    -0.05500
H234        H  0.04210371  0.55230897  0.20503766    -0.05600
C235        C  0.01845984  0.44511779  0.24472700     0.87900
C236        C  0.97029568  0.50017361  0.17209646     0.88500
C237        C  0.03736531  0.53169692  0.20918525     0.88500
H238        H  0.01023560  0.49412502  0.34657528    -0.05600
O239        O  0.95579259  0.48179077  0.30925410    -0.74600
Mg240      Mg  0.05677365  0.48728216  0.25396199     1.58000
H241        H  0.94308013  0.44758278  0.28675194    -0.05600
C242        C  0.99149277  0.41340882  0.16158035     0.93500
O243        O  0.06295139  0.46748959  0.16008746    -0.81900
C244        C  0.08336255  0.47815249  0.17394473     0.93600
O245        O  0.89768764  0.49068773  0.20679637    -0.81900
Mg246      Mg  0.96689482  0.52539824  0.31762063     1.58200
O247        O  0.01130054  0.42928195  0.16334844    -0.80200
O248        O  0.01827723  0.57946079  0.32296269    -0.81900
C249        C  0.85686708  0.46181154  0.10221768     0.16800
C250        C  0.84553849  0.45359356  0.07040844    -0.32200
C251        C  0.82243112  0.46592068  0.05962676     0.21200
C252        C  0.81134952  0.48570303  0.07952185     0.03400
C253        C  0.82282974  0.49409691  0.11098805    -0.21900
C254        C  0.84565552  0.48157125  0.12196183     0.12600
S255        S  0.88460899  0.44916380  0.12030920    -0.05600
C256        C  0.88094632  0.47069947  0.15486704    -0.09100
C257        C  0.85930682  0.48671387  0.15218506    -0.25700
S258        S  0.78216046  0.49661893  0.06403171    -0.02900
C259        C  0.78472084  0.47429425  0.03041872    -0.16300
C260        C  0.80724564  0.45940055  0.03102238    -0.14300
H261        H  0.85403517  0.43792425  0.05514366     0.21000
H262        H  0.81394425  0.50928368  0.12671821     0.17100
H263        H  0.85413770  0.50172875  0.17098107     0.19600
H264        H  0.81126976  0.44347397  0.01304885     0.12900
C265        C  0.80627441  0.48309641  0.39767310     0.16800
C266        C  0.81951975  0.48374636  0.36550862    -0.32200
C267        C  0.84248380  0.49952007  0.36311243     0.21200
C268        C  0.85175690  0.51404073  0.39149274     0.03400
C269        C  0.83834353  0.51361224  0.42353310    -0.21900
C270        C  0.81543325  0.49777356  0.42595307     0.12600
S271        S  0.77852733  0.46470851  0.40608705    -0.05600
C272        C  0.77898604  0.47705215  0.44822197    -0.09100
C273        C  0.79983434  0.49451055  0.45499639    -0.25700
S274        S  0.88076734  0.53062675  0.38403591    -0.02900
C275        C  0.88059130  0.51781044  0.34219753    -0.16300
C276        C  0.85882398  0.50177828  0.33460893    -0.14300
H277        H  0.81245364  0.47215609  0.34348926     0.21000
H278        H  0.84569208  0.52478857  0.44576946     0.17100
H279        H  0.80329198  0.50467582  0.47949032     0.19600
H280        H  0.85576184  0.49133712  0.31017745     0.12900
C281        C  0.68544831  0.46136594  0.39219861     0.16800
C282        C  0.66394949  0.45324332  0.37177219    -0.32200
C283        C  0.64505075  0.47198470  0.36407275     0.21200
C284        C  0.64783257  0.49800321  0.37478994     0.03400
C285        C  0.67000131  0.50643656  0.39396915    -0.21900
C286        C  0.68844214  0.48738950  0.40293867     0.12600
S287        S  0.70684666  0.44027098  0.41101710    -0.05600
C288        C  0.71978906  0.46666088  0.43387296    -0.09100
C289        C  0.70857060  0.49060487  0.42646282    -0.25700
S290        S  0.62121636  0.51690919  0.36568614    -0.02900
C291        C  0.60614433  0.48919174  0.34804426    -0.16300
C292        C  0.62134590  0.46690312  0.34848473    -0.14300
H293        H  0.66101630  0.43275622  0.36452510     0.21000
H294        H  0.67183228  0.52646304  0.40360146     0.17100
H295        H  0.71279601  0.50870883  0.94067195     0.19600
H296        H  0.61502034  0.44767029  0.33896816     0.12900
C297        C  0.14788078  0.51534543  0.36483572     0.16800
C298        C  0.17133339  0.50626744  0.37894465    -0.32200
C299        C  0.17856101  0.51530020  0.41213045     0.21200
C300        C  0.16312949  0.53257220  0.43085392     0.03400
C301        C  0.13939402  0.54164309  0.41669444    -0.21900
C302        C  0.13216326  0.53262921  0.38312217     0.12600
S303        S  0.13609470  0.50621533  0.32502414    -0.05600
C304        C  0.10937272  0.52574460  0.33257144    -0.09100
C305        C  0.10983925  0.53876218  0.36459262    -0.25700
S306        S  0.17635564  0.54172370  0.47042285    -0.02900
C307        C  0.20265924  0.52194190  0.46114105    -0.16300
C308        C  0.20117912  0.50924030  0.42927408    -0.14300
H309        H  0.18355646  0.49281060  0.36451418     0.21000
H310        H  0.12725518  0.55520983  0.43103581     0.17100
H311        H  0.09445354  0.55135250  0.37411623     0.19600
H312        H  0.21629781  0.49670887  0.41882660     0.12900
C313        C  0.15067454  0.49142449  0.13082626     0.16800
C314        C  0.17581543  0.50124364  0.12201718    -0.32200
C315        C  0.18428544  0.49787926  0.08746084     0.21200
C316        C  0.16872919  0.48467888  0.06296174     0.03400
C317        C  0.14370554  0.47452698  0.07189602    -0.21900
C318        C  0.13494083  0.47850521  0.10625683     0.12600
S319        S  0.13600368  0.49557023  0.17049993    -0.05600
C320        C  0.10811718  0.48012876  0.15378824    -0.09100
C321        C  0.11049933  0.47186973  0.11932091    -0.25700
S322        S  0.18198402  0.48393747  0.02199864    -0.02900
C323        C  0.20840570  0.50239622  0.03777286    -0.16300
C324        C  0.20712122  0.50796813  0.07323201    -0.14300
H325        H  0.18785902  0.51189079  0.14094955     0.21000
H326        H  0.13124744  0.46479042  0.05259190     0.17100
H327        H  0.09489627  0.46235596  0.10426071     0.19600
H328        H  0.22139278  0.51992788  0.08751210     0.12900
C329        C  0.30308690  0.48964928  0.08996365     0.16800
C330        C  0.32522003  0.47711317  0.10368181    -0.32200
C331        C  0.34255370  0.49224404  0.12465671     0.21200
C332        C  0.33736772  0.51827412  0.13271933     0.03400
C333        C  0.31490087  0.53046285  0.12004388    -0.21900
C334        C  0.29823936  0.51574686  0.09800483     0.12600
S335        S  0.28284287  0.47672342  0.05826849    -0.05600
C336        C  0.26828543  0.50696265  0.05546590    -0.09100
C337        C  0.27818268  0.52565585  0.07855520    -0.25700
S338        S  0.36147810  0.53416907  0.15581793    -0.02900
C339        C  0.37923403  0.50568079  0.15427526    -0.16300
C340        C  0.36664787  0.48476564  0.13724174    -0.14300
H341        H  0.32967775  0.45709311  0.09638020     0.21000
H342        H  0.31150442  0.55107997  0.12523575     0.17100
H343        H  0.27296645  0.54622102  0.07831203     0.19600
H344        H  0.37496251  0.46552615  0.13337589     0.12900
C345        C  0.53190984  0.15514427  0.13668582     0.16800
C346        C  0.54365092  0.17552869  0.11731237    -0.32200
C347        C  0.52706120  0.19383993  0.10189543     0.21200
C348        C  0.49998049  0.19266699  0.10669244     0.03400
C349        C  0.48823409  0.17254799  0.12688978    -0.21900
C350        C  0.50480050  0.15347823  0.14109064     0.12600
S351        S  0.54859197  0.12941197  0.15362834    -0.05600
C352        C  0.51875074  0.11561475  0.16603919    -0.09100
C353        C  0.49708029  0.13074539  0.15805792    -0.25700
S354        S  0.48316384  0.21469254  0.08182754    -0.02900
C355        C  0.51287938  0.22484912  0.06417214    -0.16300
C356        C  0.53452657  0.21232069  0.07773785    -0.14300
H357        H  0.56470739  0.17614223  0.11264582     0.21000
H358        H  0.46701821  0.17087207  0.12952468     0.17100
H359        H  0.47679668  0.12506052  0.16340956     0.19600
H360        H  0.55442832  0.21481444  0.06788352     0.12900
C361        C  0.50361182  0.34066340  0.36607745     0.16800
C362        C  0.49559010  0.31669313  0.38088169    -0.32200
C363        C  0.50322727  0.31175597  0.41534710     0.21200
C364        C  0.51816576  0.32982405  0.43454822     0.03400
C365        C  0.52619938  0.35398196  0.41969188    -0.21900
C366        C  0.51863323  0.35889593  0.38494771     0.12600
S367        S  0.49570724  0.35029754  0.32484901    -0.05600
C368        C  0.51277370  0.37937261  0.33276311    -0.09100
C369        C  0.52414016  0.38119255  0.36578990    -0.25700
S370        S  0.52642116  0.31904156  0.47549243    -0.02900
C371        C  0.50959102  0.28993526  0.46627209    -0.16300
C372        C  0.49821875  0.28904918  0.43336308    -0.14300
H373        H  0.48398857  0.30239051  0.36606160     0.21000
H374        H  0.53800420  0.36817514  0.43439741     0.17100
H375        H  0.53498742  0.39825374  0.37566060     0.19600
H376        H  0.48773587  0.27207570  0.42256439     0.12900
C377        C  0.46777632  0.35632557  0.10356299     0.16800
C378        C  0.46672036  0.34165939  0.07243564    -0.32200
C379        C  0.48270067  0.31951700  0.06996481     0.21200
C380        C  0.49887629  0.31220470  0.09735253     0.03400
C381        C  0.49960722  0.32660062  0.12865951    -0.21900
C382        C  0.48374990  0.34880647  0.13104671     0.12600
S383        S  0.45146115  0.38492223  0.11080731    -0.05600
C384        C  0.46630599  0.38677385  0.15133060    -0.09100
C385        C  0.48277247  0.36602343  0.15864316    -0.25700
S386        S  0.51734854  0.28525590  0.08890105    -0.02900
C387        C  0.50310416  0.28369024  0.04796646    -0.16300
C388        C  0.48490223  0.30311363  0.04159929    -0.14300
H389        H  0.45441004  0.34756543  0.05081937     0.21000
H390        H  0.51235753  0.32102235  0.14998879     0.17100
H391        H  0.49436572  0.36425133  0.18227796     0.19600
H392        H  0.47378088  0.30506530  0.01762653     0.12900
C393        C  0.46974362  0.80422664  0.40467762     0.16800
C394        C  0.46157492  0.82541743  0.38435676    -0.32200
C395        C  0.48046968  0.84488093  0.37589363     0.21200
C396        C  0.50655491  0.84301890  0.38623059     0.03400
C397        C  0.51492156  0.82136741  0.40566565    -0.21900
C398        C  0.49585036  0.80221997  0.41495528     0.12600
S399        S  0.44885711  0.78148692  0.42310347    -0.05600
C400        C  0.47550017  0.76923131  0.44500401    -0.09100
C401        C  0.49932175  0.78181700  0.43772740    -0.25700
S402        S  0.52592664  0.86973580  0.37539627    -0.02900
C403        C  0.49847712  0.88363946  0.35707740    -0.16300
C404        C  0.47575706  0.86803640  0.35906823    -0.14300
H405        H  0.44106576  0.82744203  0.37719315     0.21000
H406        H  0.53508906  0.82020605  0.41471970     0.17100
H407        H  0.51761341  0.77803569  0.45125040     0.19600
H408        H  0.45660038  0.87360438  0.34940998     0.12900
C409        C  0.49237128  0.67352546  0.08494731     0.16800
C410        C  0.50149716  0.66175870  0.11556636    -0.32200
C411        C  0.48499857  0.64294611  0.13160663     0.21200
C412        C  0.46072191  0.63573440  0.11743060     0.03400
C413        C  0.45167632  0.64734319  0.08662993    -0.21900
C414        C  0.46799970  0.66648543  0.07088432     0.12600
S415        S  0.50798622  0.69904377  0.06419091    -0.05600
C416        C  0.48136836  0.70036810  0.03645146    -0.09100
C417        C  0.46166072  0.68175847  0.04279848    -0.25700
S418        S  0.44401521  0.61197094  0.14031742    -0.02900
C419        C  0.47000080  0.61181450  0.16937120    -0.16300
C420        C  0.49032141  0.62948525  0.16163677    -0.14300
H421        H  0.52032658  0.66752785  0.12690581     0.21000
H422        H  0.43254332  0.64206571  0.07580510     0.17100
H423        H  0.44276309  0.68104016  0.02959485     0.19600
H424        H  0.50854888  0.63148808  0.17626354     0.12900
C425        C  0.49269589  0.68278694  0.40583256     0.16800
C426        C  0.49165396  0.66872127  0.37429965    -0.32200
C427        C  0.50674051  0.64601835  0.37166062     0.21200
C428        C  0.52246401  0.63780871  0.39903606     0.03400
C429        C  0.52391539  0.65220068  0.43039665    -0.21900
C430        C  0.50848479  0.67473329  0.43322494     0.12600
S431        S  0.47444777  0.70974897  0.41485886    -0.05600
C432        C  0.48808148  0.71028329  0.45617537    -0.09100
C433        C  0.50603929  0.69052805  0.46218671    -0.25700
S434        S  0.53752063  0.60854138  0.39155952    -0.02900
C435        C  0.52232070  0.60730258  0.35119732    -0.16300
C436        C  0.50681483  0.62878419  0.34403774    -0.14300
H437        H  0.47899645  0.67476694  0.35310834     0.21000
H438        H  0.53585481  0.64564396  0.45203767     0.17100
H439        H  0.51663412  0.68768621  0.48636832     0.19600
H440        H  0.49510036  0.63101236  0.32058796     0.12900
C441        C  0.15453322  0.96374824  0.13297961     0.16800
C442        C  0.17687529  0.95077758  0.12114862    -0.32200
C443        C  0.19721329  0.96613484  0.10645261     0.21200
C444        C  0.19573665  0.99330850  0.10423436     0.03400
C445        C  0.17339032  0.00635586  0.11637453    -0.21900
C446        C  0.15272357  0.99088444  0.13045056     0.12600
S447        S  0.12740355  0.94833269  0.15017146    -0.05600
C448        C  0.11312283  0.97869320  0.15380670    -0.09100
C449        C  0.12889342  0.99962127  0.14232708    -0.25700
S450        S  0.22149956  0.00795028  0.08236539    -0.02900
C451        C  0.23384820  0.97705887  0.07544205    -0.16300
C452        C  0.21904498  0.95675587  0.09011812    -0.14300
H453        H  0.17798539  0.92953419  0.12229901     0.21000
H454        H  0.17179847  0.02748354  0.11385270     0.17100
H455        H  0.12327105  0.02006132  0.14272931     0.19600
H456        H  0.22287424  0.93604580  0.08634882     0.12900
C457        C  0.37225526  0.96546175  0.40831622     0.16800
C458        C  0.35989257  0.95451883  0.43772761    -0.32200
C459        C  0.34212555  0.97021243  0.45593573     0.21200
C460        C  0.33703319  0.99573287  0.44554105     0.03400
C461        C  0.34951060  0.00673352  0.41622485    -0.21900
C462        C  0.36701939  0.99091955  0.39774861     0.12600
S463        S  0.39447455  0.94966127  0.38280403    -0.05600
C464        C  0.39661113  0.97760526  0.35746197    -0.09100
C465        C  0.38077407  0.99793199  0.36834701    -0.25700
S466        S  0.31273138  0.01044852  0.46874907    -0.02900
C467        C  0.30937573  0.98194563  0.49272098    -0.16300
C468        C  0.32639125  0.96226356  0.48310065    -0.14300
H469        H  0.36355784  0.93447764  0.44565463     0.21000
H470        H  0.34521816  0.02648016  0.40763959     0.17100
H471        H  0.38005142  0.01710848  0.35612247     0.19600
H472        H  0.32553427  0.94238014  0.49326077     0.12900
C473        C  0.36293172  0.03350908  0.13108087     0.16800
C474        C  0.34913818  0.03377507  0.09926985    -0.32200
C475        C  0.32728115  0.01656995  0.09557183     0.21200
C476        C  0.31906628  0.00035380  0.12271100     0.03400
C477        C  0.33255673  0.00046141  0.15478242    -0.21900
C478        C  0.35484018  0.01717156  0.15816365     0.12600
S479        S  0.39184289  0.05032773  0.13894263    -0.05600
C480        C  0.39349208  0.03478812  0.17889886    -0.09100
C481        C  0.37212460  0.01806441  0.18586523    -0.25700
S482        S  0.29309018  0.97982156  0.11233488    -0.02900
C483        C  0.29350583  0.99289536  0.07073675    -0.16300
C484        C  0.31264950  0.01246034  0.06572962    -0.14300
H485        H  0.35586777  0.04599534  0.07777671     0.21000
H486        H  0.32660248  0.98728026  0.17566215     0.17100
H487        H  0.37029248  0.00575721  0.20883959     0.19600
H488        H  0.31603491  0.02289023  0.04154566     0.12900
C489        C  0.80903774  0.01207575  0.40815950     0.16800
C490        C  0.83089293  0.99771615  0.39707190    -0.32200
C491        C  0.84998430  0.01096033  0.37666202     0.21200
C492        C  0.84683709  0.03695985  0.36675871     0.03400
C493        C  0.82479629  0.05102093  0.37704420    -0.21900
C494        C  0.80635256  0.03817399  0.39846282     0.12600
S495        S  0.78574130  0.00114473  0.43733037    -0.05600
C496        C  0.77308780  0.03235127  0.43718749    -0.09100
C497        C  0.78575344  0.04982104  0.41488140    -0.25700
S498        S  0.87259590  0.05030875  0.34415065    -0.02900
C499        C  0.88831877  0.02078131  0.34843112    -0.16300
C500        C  0.87383311  0.00141646  0.36593656    -0.14300
H501        H  0.83359416  0.97763557  0.40551643     0.21000
H502        H  0.82285185  0.07156245  0.37024168     0.17100
H503        H  0.78125543  0.07049888  0.41272807     0.19600
H504        H  0.88063942  0.98178475  0.37131750     0.12900
C505        C  0.66410840  0.04195628  0.06280262     0.16800
C506        C  0.64269576  0.04888311  0.08371763    -0.32200
C507        C  0.63753668  0.03360364  0.11348681     0.21200
C508        C  0.65275333  0.01214915  0.12181736     0.03400
C509        C  0.67394504  0.00501146  0.10066202    -0.21900
C510        C  0.67931732  0.02048805  0.07115557     0.12600
S511        S  0.67524287  0.05956265  0.02767109    -0.05600
C512        C  0.70048378  0.03766119  0.02412870    -0.09100
C513        C  0.70023067  0.01791315  0.04896154    -0.25700
S514        S  0.64346879  0.99631707  0.15923119    -0.02900
C515        C  0.61880704  0.01886261  0.16377759    -0.16300
C516        C  0.61802557  0.03757692  0.13749573    -0.14300
H517        H  0.63099498  0.06584312  0.07756535     0.21000
H518        H  0.68607988  0.98847597  0.10733945     0.17100
H519        H  0.71542220  0.00341330  0.05179759     0.19600
H520        H  0.60372767  0.05305000  0.13578767     0.12900
C521        C  0.68153877  0.98344397  0.43034694     0.16800
C522        C  0.65822802  0.96930671  0.42235706    -0.32200
C523        C  0.64994353  0.96881566  0.38732729     0.22800
C524        C  0.66483240  0.98085514  0.36128177     0.03400
C525        C  0.68843162  0.99436909  0.36916563    -0.21900
C526        C  0.69605714  0.99586938  0.40431635     0.12600
S527        S  0.69257984  0.99013571  0.47164649    -0.05600
C528        C  0.71638570  0.01084724  0.45379184    -0.09100
C529        C  0.71607511  0.01141741  0.41750750    -0.25700
S530        S  0.65011865  0.98090646  0.32125069    -0.02900
C531        C  0.62308714  0.96539863  0.33986824    -0.16300
C532        C  0.62601639  0.95961718  0.37508913    -0.14300
H533        H  0.64617743  0.96064328  0.44281111     0.21000
H534        H  0.69939757  0.00482117  0.34909286     0.17100
H535        H  0.72828438  0.02429003  0.40156189     0.19600
H536        H  0.61066652  0.95117312  0.39147762     0.12900
C537        C  0.02991581  0.17748310  0.41679653     0.16800
C538        C  0.03409592  0.16526038  0.38459790    -0.32200
C539        C  0.01573184  0.14602119  0.37380143     0.21200
C540        C  0.99440458  0.13868134  0.39446168     0.03400
C541        C  0.99036698  0.15071734  0.42707752    -0.21900
C542        C  0.00852932  0.17048417  0.43760619     0.12600
S543        S  0.04816081  0.20357974  0.43178371    -0.05600
C544        C  0.02661425  0.20563532  0.46626732    -0.09100
C545        C  0.00671039  0.18648414  0.46650930    -0.25700
S546        S  0.97460928  0.11462410  0.37632661    -0.02900
C547        C  0.99529890  0.11476108  0.34052922    -0.16300
C548        C  0.01626739  0.13254698  0.34287369    -0.14300
H549        H  0.05050972  0.17113671  0.36809941     0.21000
H550        H  0.97347535  0.14543267  0.44304421     0.17100
H551        H  0.99051404  0.18587711  0.48490754     0.19600
H552        H  0.03161401  0.13493860  0.32342099     0.12900
C553        C  0.04977738  0.13749494  0.10852372     0.16800
C554        C  0.05456324  0.15155989  0.07756522    -0.32200
C555        C  0.04141161  0.17533620  0.07290619     0.21200
C556        C  0.02451592  0.18488772  0.09815673     0.03400
C557        C  0.02003492  0.17101562  0.12936772    -0.21900
C558        C  0.03296795  0.14707195  0.13386680     0.12600
S559        S  0.06208278  0.10723641  0.11774194    -0.05600
C560        C  0.04433341  0.10730328  0.15616587    -0.09100
C561        C  0.02999580  0.12997471  0.16145938    -0.25700
S562        S  0.00998523  0.21376806  0.08713078    -0.02900
C563        C  0.02676635  0.21297774  0.04795331    -0.16300
C564        C  0.04284845  0.19137209  0.04409813    -0.14300
H565        H  0.06746877  0.14397501  0.05759778     0.21000
H566        H  0.00662667  0.17828893  0.14895292     0.17100
H567        H  0.01704838  0.13319654  0.18345877     0.19600
H568        H  0.05513203  0.18765785  0.02161288     0.12900
C569        C  0.99007772  0.34289877  0.12501463     0.16800
C570        C  0.98279602  0.31838186  0.11070161    -0.32200
C571        C  0.00269382  0.30332501  0.09574790     0.21200
C572        C  0.02883860  0.31185292  0.09615718     0.03400
C573        C  0.03622147  0.33607525  0.11131588    -0.21900
C574        C  0.01617354  0.35158827  0.12505563     0.12600
S575        S  0.96849392  0.36522090  0.14096207    -0.05600
C576        C  0.99480611  0.38680065  0.14701111    -0.09100
C577        C  0.01903116  0.37677192  0.13774234    -0.25700
S578        S  0.04931135  0.29285728  0.07197471    -0.02900
C579        C  0.02231895  0.27359092  0.06049183    -0.16300
C580        C  0.99891004  0.28122337  0.07559381    -0.14300
H581        H  0.96230054  0.31202646  0.10941982     0.21000
H582        H  0.05646486  0.34325954  0.11042887     0.17100
H583        H  0.03767654  0.38747646  0.13965923     0.19600
H584        H  0.97971353  0.27295949  0.06878176     0.12900
C585        C  0.98749738  0.84616321  0.13564596     0.16800
C586        C  0.97421850  0.82477820  0.12022080    -0.32200
C587        C  0.98130919  0.81791930  0.08620047     0.21200
C588        C  0.00067441  0.83174869  0.06795199     0.03400
C589        C  0.01382980  0.85351249  0.08332165    -0.21900
C590        C  0.00684250  0.86029274  0.11770302     0.12600
S591        S  0.98141490  0.85727059  0.17668992    -0.05600
C592        C  0.00500458  0.88157732  0.16991399    -0.09100
C593        C  0.01711286  0.88073743  0.13740515    -0.25700
S594        S  0.00769412  0.81847533  0.02789583    -0.02900
C595        C  0.98451267  0.79398862  0.03643284    -0.16300
C596        C  0.97183607  0.79656031  0.06817783    -0.14300
H597        H  0.95925178  0.81365162  0.13438928     0.21000
H598        H  0.02913581  0.86433168  0.06940413     0.17100
H599        H  0.03185271  0.89483159  0.12826424     0.19600
H600        H  0.95755149  0.78247175  0.07853683     0.12900
C601        C  0.98073889  0.81444878  0.40535023     0.16800
C602        C  0.98438877  0.82863076  0.37424354    -0.32200
C603        C  0.97130728  0.85257808  0.37083761     0.21200
C604        C  0.95509876  0.86185575  0.39707115     0.03400
C605        C  0.95104880  0.84742182  0.42785783    -0.21900
C606        C  0.96438175  0.82366356  0.43144057     0.12600
S607        S  0.99585459  0.78567474  0.41536649    -0.05600
C608        C  0.98009764  0.78610389  0.45527013    -0.09100
C609        C  0.96378332  0.80742060  0.45999894    -0.25700
S610        S  0.94262350  0.89223990  0.38912417    -0.02900
C611        C  0.95947289  0.89258324  0.35002733    -0.16300
C612        C  0.97364871  0.86999019  0.34358658    -0.14300
H613        H  0.99737894  0.82163958  0.35396233     0.21000
H614        H  0.93862972  0.85475908  0.44855113     0.17100
H615        H  0.95205841  0.81086820  0.48310465     0.19600
H616        H  0.98605100  0.86701640  0.32096251     0.12900
C617        C  0.97340128  0.64715311  0.38164864     0.16800
C618        C  0.95974051  0.66599372  0.40076174    -0.32200
C619        C  0.97370383  0.68874279  0.41130061     0.21200
C620        C  0.99998875  0.69285783  0.40265924     0.03400
C621        C  0.01352142  0.67424321  0.38280682    -0.21900
C622        C  0.99969665  0.65116520  0.37291938     0.12600
S623        S  0.96043230  0.61742193  0.36895378    -0.05600
C624        C  0.99080515  0.61006700  0.35186218    -0.09100
C625        C  0.00982253  0.62991414  0.35570117    -0.25700
S626        S  0.01436109  0.71973598  0.42241461    -0.02900
C627        C  0.98469950  0.72536272  0.44263637    -0.16300
C628        C  0.96479791  0.70746140  0.43387931    -0.14300
H629        H  0.93943194  0.66251276  0.40847024     0.21000
H630        H  0.03425652  0.67700783  0.37686520     0.17100
H631        H  0.03000247  0.62874196  0.34675641     0.19600
H632        H  0.94567040  0.70653546  0.44642076     0.12900
N633        N  0.98329423  0.76594642  0.98136828    -0.02600
C634        C  0.98390241  0.73949679  0.97608206     0.00000
C635        C  0.98343248  0.72616163  0.50745795    -0.22900
C636        C  0.98267654  0.74486377  0.53319876    -0.23100
C637        C  0.98269150  0.76904587  0.51668963    -0.00100
H638        H  0.98388321  0.70505283  0.51114734     0.13700
H639        H  0.98288938  0.74122846  0.56105453     0.13700
N640        N  0.02431893  0.23315828  0.52166120    -0.02600
C641        C  0.02217223  0.25948564  0.52702067     0.00000
C642        C  0.02179329  0.27287474  0.99572725    -0.22900
C643        C  0.02378534  0.25434773  0.96991514    -0.23100
C644        C  0.02530687  0.23025281  0.98634362    -0.00100
H645        H  0.02051949  0.29394425  0.99215675     0.13700
H646        H  0.02386829  0.25801137  0.94206133     0.13700
N647        N  0.73196085  0.02948691  0.97425394    -0.02600
C648        C  0.75490015  0.04152600  0.96432760     0.00000
C649        C  0.76082724  0.06278550  0.48573722    -0.22900
C650        C  0.74103177  0.06391926  0.50999975    -0.23100
C651        C  0.72374286  0.04333639  0.50251092    -0.00100
H652        H  0.77812239  0.07559921  0.48448258     0.13700
H653        H  0.73961513  0.07793320  0.53124533     0.13700
N654        N  0.27699653  0.98223675  0.54310518    -0.02600
C655        C  0.25221243  0.97200874  0.54670480     0.00000
C656        C  0.24416618  0.95908621  0.01659944    -0.22900
C657        C  0.26461761  0.96129842  0.99343517    -0.23100
C658        C  0.28440438  0.97549996  0.01020270    -0.00100
H659        H  0.22508146  0.94989162  0.01161813     0.13700
H660        H  0.26494467  0.95371497  0.96697360     0.13700
N661        N  0.47997047  0.72884553  0.98247195    -0.02600
C662        C  0.47185294  0.75376157  0.97695443     0.00000
C663        C  0.46311039  0.76496615  0.50760916    -0.22900
C664        C  0.46585686  0.74635009  0.53314559    -0.23100
C665        C  0.47618913  0.72451197  0.51710939    -0.00100
H666        H  0.45629905  0.78484086  0.51116828     0.13700
H667        H  0.46099836  0.74850403  0.56052558     0.13700
N668        N  0.50947963  0.26356114  0.52288326    -0.02600
C669        C  0.51439567  0.23794428  0.52999538     0.00000
C670        C  0.51941577  0.22416691  0.99970625    -0.22900
C671        C  0.51749961  0.24175616  0.97279578    -0.23100
C672        C  0.51153686  0.26580739  0.98754144    -0.00100
H673        H  0.52363843  0.20343396  0.99743913     0.13700
H674        H  0.52061201  0.23754733  0.94538286     0.13700
N675        N  0.22914312  0.51261059  0.51554138    -0.02600
C676        C  0.25516784  0.51513911  0.52327720     0.00000
C677        C  0.26909789  0.52532112  0.99526551    -0.22900
C678        C  0.25111584  0.52917900  0.96909954    -0.23100
C679        C  0.22683773  0.52139507  0.98221157    -0.00100
H680        H  0.29015079  0.52905232  0.99386821     0.13700
H681        H  0.25527073  0.53672006  0.94321485     0.13700
N682        N  0.75919636  0.46957823  0.97370205    -0.02600
C683        C  0.73375451  0.46265846  0.96679330     0.00000
C684        C  0.72035715  0.45623103  0.49702098    -0.22900
C685        C  0.73801890  0.45942451  0.52384417    -0.23100
C686        C  0.76158636  0.46756656  0.50897445    -0.00100
H687        H  0.69960445  0.45119461  0.49943341     0.13700
H688        H  0.73397543  0.45672038  0.55138360     0.13700
O689        O  0.47388393  0.51218772  0.69480790    -0.87500
C690        C  0.46580219  0.54150271  0.79376346     0.88600
Mg691      Mg  0.46274530  0.47291167  0.67966780     1.58100
O692        O  0.53070014  0.52844666  0.77001103    -0.87200
O693        O  0.50909120  0.53820753  0.69426083    -0.74500
C694        C  0.51211451  0.40135072  0.80776390     0.93600
O695        O  0.43037145  0.49701635  0.75249997    -0.74300
O696        O  0.49586521  0.39975667  0.78252157    -0.81900
Mg697      Mg  0.44562321  0.53390228  0.72395399     1.58000
C698        C  0.57929459  0.48869007  0.83379683     0.93500
O699        O  0.45696898  0.57134828  0.69434593    -0.80100
H700        H  0.56134828  0.53371055  0.73779604    -0.05500
C701        C  0.49124400  0.47177842  0.82427074     0.88500
O702        O  0.50596386  0.46067558  0.68540682    -0.74600
O703        O  0.47420608  0.54147525  0.76343611    -0.87400
O704        O  0.56601383  0.50969686  0.83330332    -0.80200
C705        C  0.52295951  0.58385636  0.82836012     0.93600
C706        C  0.47225709  0.59146633  0.69630160     0.93500
Mg707      Mg  0.53923796  0.45912185  0.78171228     1.58000
O708        O  0.52676934  0.42173436  0.81261965    -0.80100
O709        O  0.55515798  0.49575593  0.75269739    -0.74400
O710        O  0.51265756  0.58489388  0.79792820    -0.80200
O711        O  0.41428713  0.52593709  0.68433956    -0.81900
O712        O  0.47420946  0.40912484  0.70496814    -0.80200
C713        C  0.54965462  0.52007244  0.75328240     0.87900
O714        O  0.51132211  0.45215329  0.74106450    -0.87400
O715        O  0.51082167  0.48145991  0.80935856    -0.87500
O716        O  0.47585183  0.45509202  0.80928873    -0.74500
Mg717      Mg  0.51036230  0.56011107  0.74702605     1.58000
O718        O  0.53278753  0.56282508  0.84021881    -0.81900
H719        H  0.49731451  0.51563885  0.65301844    -0.05600
O720        O  0.45454512  0.46470043  0.73343877    -0.87200
H721        H  0.42420757  0.45877682  0.76594485    -0.05500
H722        H  0.54003534  0.44731843  0.70600976    -0.05600
C723        C  0.43573650  0.47272469  0.75072851     0.87900
C724        C  0.49326447  0.52187341  0.67947571     0.88500
C725        C  0.51990865  0.45285739  0.71081743     0.88500
H726        H  0.48676480  0.47811871  0.85055273    -0.05600
O727        O  0.47968219  0.53366950  0.81918852    -0.74600
Mg728      Mg  0.47533123  0.43328507  0.75617304     1.58000
H729        H  0.44586629  0.54762110  0.79861590    -0.05600
C730        C  0.40571984  0.50494713  0.66981397     0.93500
O731        O  0.45364414  0.43068431  0.66260450    -0.81900
C732        C  0.46426504  0.40999496  0.67435375     0.93600
O733        O  0.49025526  0.59358274  0.71938569    -0.81900
Mg734      Mg  0.52263400  0.52077453  0.82390535     1.58200
O735        O  0.41913550  0.48396135  0.66886203    -0.80200
O736        O  0.57023462  0.46696834  0.82186945    -0.81900
O737        O  0.51976752  0.01994440  0.70236475    -0.87500
C738        C  0.55738579  0.02301826  0.79633809     0.88600
Mg739      Mg  0.48067746  0.03382613  0.69541490     1.58100
O740        O  0.53687572  0.95919685  0.77259119    -0.87200
O741        O  0.54114323  0.98293442  0.69658614    -0.74500
C742        C  0.41606661  0.98054108  0.82931903     0.93600
O743        O  0.51438596  0.06217278  0.76428741    -0.74300
O744        O  0.41437490  0.99963095  0.80804238    -0.81900
Mg745      Mg  0.54685436  0.04594877  0.72887436     1.58000
C746        C  0.49886262  0.91008912  0.84125000     0.93500
O747        O  0.58048161  0.03338703  0.69270455    -0.80100
H748        H  0.53784674  0.92902139  0.73899027    -0.05500
C749        C  0.48883388  0.99849356  0.83754583     0.88500
O750        O  0.46466344  0.99112234  0.70006614    -0.74600
O751        O  0.55445258  0.01562740  0.76570807    -0.87400
O752        O  0.52059349  0.92315828  0.83925563    -0.80200
C753        C  0.59755665  0.96411200  0.82154598     0.93600
C754        C  0.59898629  0.01685270  0.69171921     0.93500
Mg755      Mg  0.46886300  0.95243116  0.79291074     1.58000
O756        O  0.43478302  0.96432163  0.82799431    -0.80100
O757        O  0.50150316  0.93615968  0.75834382    -0.74400
O758        O  0.59621937  0.97419396  0.79112972    -0.80200
O759        O  0.53874206  0.07917014  0.69196890    -0.81900
O760        O  0.41841827  0.02358464  0.72950212    -0.80200
C761        C  0.52613190  0.94078514  0.75640592     0.87900
O762        O  0.46117342  0.98299422  0.75613069    -0.87400
O763        O  0.49529966  0.97906334  0.82010139    -0.87500
O764        O  0.47303086  0.01554280  0.82591234    -0.74500
Mg765      Mg  0.56765124  0.97894046  0.74510639     1.58000
O766        O  0.57727173  0.95476409  0.83716729    -0.81900
H767        H  0.51646626  0.99719357  0.65979568    -0.05600
O768        O  0.47840365  0.03973226  0.75055333    -0.87200
H769        H  0.47851944  0.06921196  0.78533807    -0.05500
H770        H  0.45029875  0.95659339  0.71968909    -0.05600
C771        C  0.48974113  0.05764136  0.76711243     0.87900
C772        C  0.52557903  0.00023353  0.68504882     0.88500
C773        C  0.45816845  0.97610584  0.72531184     0.88500
H774        H  0.49757077  0.00152018  0.86306602    -0.05600
O775        O  0.55041970  0.00864862  0.82199054    -0.74600
Mg776      Mg  0.44705387  0.01937197  0.77679576     1.58000
H777        H  0.56537751  0.04256851  0.80140478    -0.05600
C778        C  0.51727580  0.08928535  0.68219751     0.93500
O779        O  0.43849172  0.04620136  0.68696643    -0.81900
C780        C  0.41792265  0.03534727  0.70001971     0.93600
O781        O  0.60036629  0.99805894  0.71345210    -0.81900
Mg782      Mg  0.53466770  0.96611761  0.82786157     1.58200
O783        O  0.49507841  0.07718574  0.68552943    -0.80200
O784        O  0.47728722  0.91913473  0.82992906    -0.81900
O785        O  0.01800162  0.98286832  0.69440330    -0.87500
C786        C  0.02253470  0.95260217  0.79295815     0.88600
Mg787      Mg  0.03449531  0.02076688  0.68127257     1.58100
O788        O  0.95925492  0.97284317  0.77008984    -0.87200
O789        O  0.97983238  0.96143060  0.69438092    -0.74500
C790        C  0.99325046  0.09499348  0.81242931     0.93600
O791        O  0.06368913  0.99100628  0.75152848    -0.74300
O792        O  0.01026157  0.09543686  0.78801497    -0.81900
Mg793      Mg  0.04319873  0.95681086  0.72175664     1.58000
C794        C  0.91501769  0.01755554  0.83420807     0.93500
O795        O  0.02573139  0.92142548  0.69013301    -0.80100
H796        H  0.92864492  0.97102198  0.73714324    -0.05500
C797        C  0.00470640  0.02327473  0.82584268     0.88500
O798        O  0.99348778  0.03877263  0.68687814    -0.74600
O799        O  0.01432649  0.95341566  0.76250945    -0.87400
O800        O  0.92591397  0.99512555  0.83461980    -0.80200
C801        C  0.96118476  0.91620899  0.82763588     0.93600
C802        C  0.00841893  0.90326236  0.69514877     0.93500
Mg803      Mg  0.95900907  0.04227081  0.78226854     1.58000
O804        O  0.97553920  0.07696239  0.81450611    -0.80100
O805        O  0.93922602  0.00815999  0.75198299    -0.74400
O806        O  0.97172548  0.91451314  0.79747478    -0.80200
O807        O  0.07527326  0.96096024  0.68132210    -0.81900
O808        O  0.03152624  0.08570956  0.70900257    -0.80200
C809        C  0.94165295  0.98331071  0.75291806     0.87900
O810        O  0.98848059  0.04638742  0.74285083    -0.87400
O811        O  0.98401098  0.01658511  0.81064865    -0.87500
O812        O  0.02243811  0.03759930  0.81131531    -0.74500
Mg813      Mg  0.97628199  0.93931374  0.74698931     1.58000
O814        O  0.95300145  0.93797921  0.83956319    -0.81900
H815        H  0.99349536  0.98306766  0.65341377    -0.05600
O816        O  0.04326269  0.02665154  0.73537262    -0.87200
H817        H  0.07443371  0.02787920  0.76743842    -0.05500
H818        H  0.96135055  0.05613215  0.70748403    -0.05600
C819        C  0.06112628  0.01587392  0.75170351     0.87900
C820        C  0.99723465  0.97599367  0.67954024     0.88500
C821        C  0.98037903  0.04771879  0.71241071     0.88500
H822        H  0.00817258  0.01605466  0.85196824    -0.05600
O823        O  0.00920169  0.96137357  0.81843978    -0.74600
Mg824      Mg  0.02646641  0.06027554  0.75937616     1.58000
H825        H  0.04177680  0.94467357  0.79796678    -0.05600
C826        C  0.08668855  0.98150207  0.66918122     0.93500
O827        O  0.04969835  0.06180196  0.66675518    -0.81900
C828        C  0.04203265  0.08377598  0.67876787     0.93600
O829        O  0.99256693  0.90385871  0.72071560    -0.81900
Mg830      Mg  0.96781881  0.97888873  0.82422815     1.58200
O831        O  0.07612900  0.00409050  0.67053072    -0.80200
O832        O  0.92630009  0.03778565  0.82110433    -0.81900
O833        O  0.97996089  0.48105450  0.68709889    -0.87500
C834        C  0.94852212  0.46808331  0.78299655     0.88600
Mg835      Mg  0.02006586  0.47341460  0.67490826     1.58100
O836        O  0.96022795  0.53474965  0.76391539    -0.87200
O837        O  0.95312533  0.51449651  0.68657496    -0.74500
C838        C  0.08708780  0.52517235  0.80787130     0.93600
O839        O  0.99447461  0.43735015  0.74378638    -0.74300
O840        O  0.08871088  0.50948075  0.78212149    -0.81900
Mg841      Mg  0.95818685  0.45020451  0.71283538     1.58000
C842        C  0.99542494  0.58469936  0.83441706     0.93500
O843        O  0.92149028  0.45990608  0.68079461    -0.80100
H844        H  0.95474237  0.56605788  0.73336534    -0.05500
C845        C  0.01693043  0.49921977  0.82062092     0.88500
O846        O  0.03059349  0.51745264  0.68309254    -0.74600
O847        O  0.94848129  0.47723928  0.75308237    -0.87400
O848        O  0.97598962  0.56858674  0.83121875    -0.80200
C849        C  0.90372479  0.52075863  0.81905996     0.93600
C850        C  0.90089175  0.47371031  0.68264739     0.93500
Mg851      Mg  0.02898405  0.54944758  0.78119491     1.58000
O852        O  0.06665110  0.53887882  0.81322831    -0.80100
O853        O  0.99230150  0.56284215  0.75094269    -0.74400
O854        O  0.90307569  0.51137327  0.78798651    -0.80200
O855        O  0.96883461  0.41965336  0.67259410    -0.81900
O856        O  0.08294867  0.48779658  0.70471973    -0.80200
C857        C  0.96831546  0.55503941  0.74912145     0.87900
O858        O  0.03799257  0.52282939  0.73930011    -0.87400
O859        O  0.00699246  0.51808598  0.80550499    -0.87500
O860        O  0.03419113  0.48515148  0.80602137    -0.74500
Mg861      Mg  0.92955081  0.51263120  0.73794907     1.58000
O862        O  0.92442040  0.53159758  0.83181986    -0.81900
H863        H  0.97727709  0.50536761  0.64630023    -0.05600
O864        O  0.02631697  0.46504170  0.72897132    -0.87200
H865        H  0.03220710  0.43453336  0.76074973    -0.05500
H866        H  0.04210739  0.55230663  0.70503638    -0.05600
C867        C  0.01845336  0.44511736  0.74472378     0.87900
C868        C  0.97029515  0.50017894  0.67209439     0.88500
C869        C  0.03736666  0.53169518  0.70918285     0.88500
H870        H  0.01023194  0.49412333  0.84657175    -0.05600
O871        O  0.95578748  0.48179433  0.80925012    -0.74600
Mg872      Mg  0.05677043  0.48727811  0.75395921     1.58000
H873        H  0.94307193  0.44758805  0.78674634    -0.05600
C874        C  0.99148563  0.41341167  0.66157830     0.93500
O875        O  0.06294780  0.46748629  0.66008366    -0.81900
C876        C  0.08335941  0.47814780  0.67394160     0.93600
O877        O  0.89768510  0.49069778  0.70678891    -0.81900
Mg878      Mg  0.96689369  0.52540066  0.81761848     1.58200
O879        O  0.01129389  0.42928399  0.66334627    -0.80200
O880        O  0.01828110  0.57945921  0.82296014    -0.81900
C881        C  0.85687070  0.46182235  0.60220465     0.16800
C882        C  0.84554296  0.45360216  0.57039598    -0.32200
C883        C  0.82243304  0.46592485  0.55961512     0.21200
C884        C  0.81134854  0.48570573  0.57950989     0.03400
C885        C  0.82282856  0.49410263  0.61097488    -0.21900
C886        C  0.84565654  0.48158075  0.62194848     0.12600
S887        S  0.88461314  0.44917705  0.62029740    -0.05600
C888        C  0.88094701  0.47071152  0.65485582    -0.09100
C889        C  0.85930651  0.48672444  0.65217256    -0.25700
S890        S  0.78215601  0.49661471  0.56402206    -0.02900
C891        C  0.78471912  0.47428909  0.53041070    -0.16300
C892        C  0.80724723  0.45940037  0.53101286    -0.14300
H893        H  0.85404155  0.43793351  0.55513185     0.21000
H894        H  0.81394063  0.50928795  0.62670518     0.17100
H895        H  0.85413495  0.50173800  0.67096924     0.19600
H896        H  0.81127367  0.44347401  0.51303995     0.12900
C897        C  0.80627358  0.48310591  0.89767644     0.16800
C898        C  0.81951610  0.48375799  0.86550978    -0.32200
C899        C  0.84248161  0.49952966  0.86311292     0.21200
C900        C  0.85175845  0.51404643  0.89149459     0.03400
C901        C  0.83834790  0.51361584  0.92353710    -0.21900
C902        C  0.81543635  0.49777907  0.92595781     0.12600
S903        S  0.77852518  0.46472032  0.90609132    -0.05600
C904        C  0.77898838  0.47705983  0.94822849    -0.09100
C905        C  0.79983948  0.49451485  0.95500302    -0.25700
S906        S  0.88076991  0.53063022  0.88403667    -0.02900
C907        C  0.88058970  0.51781803  0.84219602    -0.16300
C908        C  0.85882000  0.50178896  0.83460743    -0.14300
H909        H  0.81244688  0.47217088  0.84348946     0.21000
H910        H  0.84569948  0.52478907  0.94577427     0.17100
H911        H  0.80330011  0.50467757  0.97949810     0.19600
H912        H  0.85575506  0.49135043  0.81017468     0.12900
C913        C  0.68545533  0.46138076  0.89219723     0.16800
C914        C  0.66395990  0.45325658  0.87176555    -0.32200
C915        C  0.64505838  0.47199534  0.86406674     0.21200
C916        C  0.64783486  0.49801317  0.87478897     0.03400
C917        C  0.67000041  0.50644838  0.89397307    -0.21900
C918        C  0.68844350  0.48740363  0.90294257     0.12600
S919        S  0.70685520  0.44028760  0.91101632    -0.05600
C920        C  0.71979047  0.46667734  0.93387926    -0.09100
C921        C  0.70856857  0.49061998  0.92647145    -0.25700
S922        S  0.62121561  0.51691509  0.86568669    -0.02900
C923        C  0.60614914  0.48919666  0.84803958    -0.16300
C924        C  0.62135493  0.46691096  0.84847627    -0.14300
H925        H  0.66103082  0.43276973  0.86451465     0.21000
H926        H  0.67182682  0.52647404  0.90360963     0.17100
H927        H  0.71280267  0.50869445  0.44065931     0.19600
H928        H  0.61503294  0.44767793  0.83895641     0.12900
C929        C  0.14787788  0.51533979  0.86483628     0.16800
C930        C  0.17132927  0.50626118  0.87894803    -0.32200
C931        C  0.17855771  0.51529822  0.91213151     0.21200
C932        C  0.16312815  0.53257492  0.93085013     0.03400
C933        C  0.13939392  0.54164644  0.91668789    -0.21900
C934        C  0.13216239  0.53262824  0.88311795     0.12600
S935        S  0.13609104  0.50620522  0.82502680    -0.05600
C936        C  0.10937150  0.52573887  0.83256876    -0.09100
C937        C  0.10983938  0.53876116  0.86458650    -0.25700
S938        S  0.17635530  0.54173136  0.97041654    -0.02900
C939        C  0.20265676  0.52194550  0.96114001    -0.16300
C940        C  0.20117515  0.50923869  0.92927684    -0.14300
H941        H  0.18355088  0.49280075  0.86452129     0.21000
H942        H  0.12725670  0.55521688  0.93102530     0.17100
H943        H  0.09445529  0.55135495  0.87410644     0.19600
H944        H  0.21629261  0.49670417  0.91883279     0.12900
C945        C  0.15067184  0.49142063  0.63082475     0.16800
C946        C  0.17581256  0.50124059  0.62201651    -0.32200
C947        C  0.18428372  0.49787586  0.58746081     0.21200
C948        C  0.16872870  0.48467433  0.56296140     0.03400
C949        C  0.14370502  0.47452185  0.57189476    -0.21900
C950        C  0.13493914  0.47850042  0.60625504     0.12600
S951        S  0.13600010  0.49556632  0.67049776    -0.05600
C952        C  0.10811436  0.48012378  0.65378558    -0.09100
C953        C  0.11049746  0.47186435  0.61931845    -0.25700
S954        S  0.18198526  0.48393201  0.52199925    -0.02900
C955        C  0.20840575  0.50239214  0.53777430    -0.16300
C956        C  0.20711972  0.50796503  0.57323301    -0.14300
H957        H  0.18785532  0.51188852  0.64094921     0.21000
H958        H  0.13124782  0.46478436  0.55259034     0.17100
H959        H  0.09489498  0.46234992  0.60425795     0.19600
H960        H  0.22139058  0.51992549  0.58751354     0.12900
C961        C  0.30308361  0.48964831  0.58997505     0.16800
C962        C  0.32521518  0.47711085  0.60369570    -0.32200
C963        C  0.34255281  0.49224281  0.62466368     0.21200
C964        C  0.33737178  0.51827545  0.63271788     0.03400
C965        C  0.31490647  0.53046571  0.62004043    -0.21900
C966        C  0.29824128  0.51574841  0.59800778     0.12600
S967        S  0.28283594  0.47672028  0.55828525    -0.05600
C968        C  0.26828450  0.50696201  0.55547302    -0.09100
C969        C  0.27818592  0.52565760  0.57855595    -0.25700
S970        S  0.36148606  0.53417094  0.65580846    -0.02900
C971        C  0.37923719  0.50567939  0.65427380    -0.16300
C972        C  0.36664655  0.48476288  0.63724878    -0.14300
H973        H  0.32966895  0.45708844  0.59640041     0.21000
H974        H  0.31151409  0.55108449  0.62522543     0.17100
H975        H  0.27297385  0.54622380  0.57830611     0.19600
H976        H  0.37495772  0.46552104  0.63338897     0.12900
C977        C  0.53191134  0.15514378  0.63668237     0.16800
C978        C  0.54365285  0.17553138  0.61731492    -0.32200
C979        C  0.52706314  0.19384170  0.60189575     0.21200
C980        C  0.49998172  0.19266440  0.60668450     0.03400
C981        C  0.48823470  0.17254209  0.62687575    -0.21900
C982        C  0.50480146  0.15347363  0.64107930     0.12600
S983        S  0.54859438  0.12941306  0.65362791    -0.05600
C984        C  0.51875312  0.11561121  0.66603033    -0.09100
C985        C  0.49708173  0.13073903  0.65804325    -0.25700
S986        S  0.48316617  0.21468935  0.58181716    -0.02900
C987        C  0.51288333  0.22485187  0.56417188    -0.16300
C988        C  0.53453003  0.21232559  0.57774286    -0.14300
H989        H  0.56471007  0.17614835  0.61265483     0.21000
H990        H  0.46701855  0.17086307  0.62950438     0.17100
H991        H  0.47679802  0.12505144  0.66338960     0.19600
H992        H  0.55443308  0.21482254  0.56789436     0.12900
C993        C  0.50360512  0.34066579  0.86608465     0.16800
C994        C  0.49558149  0.31669584  0.88088788    -0.32200
C995        C  0.50321677  0.31175799  0.91535374     0.21200
C996        C  0.51815488  0.32982539  0.93455652     0.03400
C997        C  0.52618986  0.35398334  0.91970145    -0.21900
C998        C  0.51862604  0.35889779  0.88495649     0.12600
S999        S  0.49570448  0.35029957  0.82485488    -0.05600
C1000       C  0.51277207  0.37937379  0.83277021    -0.09100
C1001       C  0.52413575  0.38119387  0.86579870    -0.25700
S1002       S  0.52640932  0.31904138  0.97550027    -0.02900
C1003       C  0.50957941  0.28993540  0.96627728    -0.16300
C1004       C  0.49820767  0.28905062  0.93336804    -0.14300
H1005       H  0.48398060  0.30239355  0.86606628     0.21000
H1006       H  0.53799468  0.36817588  0.93440820     0.17100
H1007       H  0.53498330  0.39825465  0.87567025     0.19600
H1008       H  0.48772537  0.27207733  0.92256765     0.12900
C1009       C  0.46778426  0.35632538  0.60356341     0.16800
C1010       C  0.46672962  0.34166047  0.57243493    -0.32200
C1011       C  0.48271232  0.31951992  0.56996214     0.21200
C1012       C  0.49888910  0.31220832  0.59734902     0.03400
C1013       C  0.49961920  0.32660329  0.62865681    -0.21900
C1014       C  0.48375927  0.34880714  0.63104610     0.12600
S1015       S  0.45146542  0.38491947  0.61081049    -0.05600
C1016       C  0.46631088  0.38677136  0.65133338    -0.09100
C1017       C  0.48278012  0.36602275  0.65864394    -0.25700
S1018       S  0.51736249  0.28526051  0.58889639    -0.02900
C1019       C  0.50311685  0.28369417  0.54796263    -0.16300
C1020       C  0.48491420  0.30311701  0.54159610    -0.14300
H1021       H  0.45441805  0.34756579  0.55081961     0.21000
H1022       H  0.51237029  0.32102549  0.64998543     0.17100
H1023       H  0.49437421  0.36425128  0.68227809     0.19600
H1024       H  0.47379185  0.30506788  0.51762407     0.12900
C1025       C  0.46974899  0.80422171  0.90466808     0.16800
C1026       C  0.46158404  0.82541107  0.88434156    -0.32200
C1027       C  0.48047818  0.84487894  0.87589239     0.21200
C1028       C  0.50655972  0.84302245  0.88624802     0.03400
C1029       C  0.51492302  0.82137262  0.90568915    -0.21900
C1030       C  0.49585205  0.80222086  0.91496475     0.12600
S1031       S  0.44885993  0.78147659  0.92307830    -0.05600
C1032       C  0.47549691  0.76922652  0.94499782    -0.09100
C1033       C  0.49931861  0.78181828  0.93773899    -0.25700
S1034       S  0.52593039  0.86974350  0.87542706    -0.02900
C1035       C  0.49848521  0.88364170  0.85708890    -0.16300
C1036       C  0.47576753  0.86803365  0.85906383    -0.14300
H1037       H  0.44107731  0.82743119  0.87716293     0.21000
H1038       H  0.53508713  0.82021552  0.91475776     0.17100
H1039       H  0.51760563  0.77804102  0.95127522     0.19600
H1040       H  0.45661346  0.87359749  0.84939174     0.12900
C1041       C  0.49237967  0.67353150  0.58495675     0.16800
C1042       C  0.50150357  0.66176322  0.61557567    -0.32200
C1043       C  0.48500289  0.64295165  0.63161420     0.21200
C1044       C  0.46072557  0.63574304  0.61743756     0.03400
C1045       C  0.45168139  0.64735421  0.58663773    -0.21900
C1046       C  0.46800750  0.66649463  0.57089301     0.12600
S1047       S  0.50799889  0.69904711  0.56420011    -0.05600
C1048       C  0.48138220  0.70037439  0.53645913    -0.09100
C1049       C  0.46167160  0.68176790  0.54280626    -0.25700
S1050       S  0.44401748  0.61197836  0.64032070    -0.02900
C1051       C  0.47000378  0.61181690  0.66937308    -0.16300
C1052       C  0.49032511  0.62948754  0.66164170    -0.14300
H1053       H  0.52033369  0.66752949  0.62691535     0.21000
H1054       H  0.43254827  0.64207894  0.57581196     0.17100
H1055       H  0.44277427  0.68105207  0.52960184     0.19600
H1056       H  0.50855309  0.63148740  0.67626789     0.12900
C1057       C  0.49267972  0.68277840  0.90582706     0.16800
C1058       C  0.49163824  0.66871180  0.87429493    -0.32200
C1059       C  0.50673011  0.64601258  0.87165453     0.21200
C1060       C  0.52245768  0.63780704  0.89902811     0.03400
C1061       C  0.52390803  0.65219966  0.93038805    -0.21900
C1062       C  0.50847269  0.67472876  0.93321754     0.12600
S1063       S  0.47442770  0.70973764  0.91485421    -0.05600
C1064       C  0.48806565  0.71027601  0.95616810    -0.09100
C1065       C  0.50602704  0.69052410  0.96217847    -0.25700
S1066       S  0.53752129  0.60854369  0.89155022    -0.02900
C1067       C  0.52231899  0.60730108  0.85118989    -0.16300
C1068       C  0.50680703  0.62877849  0.84403186    -0.14300
H1069       H  0.47897783  0.67475429  0.85310496     0.21000
H1070       H  0.53585093  0.64564623  0.95202761     0.17100
H1071       H  0.51662469  0.68768545  0.98635874     0.19600
H1072       H  0.49509025  0.63100349  0.82058341     0.12900
C1073       C  0.15453199  0.96374747  0.63297730     0.16800
C1074       C  0.17687512  0.95077634  0.62115116    -0.32200
C1075       C  0.19721250  0.96613247  0.60645198     0.21200
C1076       C  0.19573426  0.99330565  0.60422605     0.03400
C1077       C  0.17338692  0.00635356  0.61636154    -0.21900
C1078       C  0.15272080  0.99088314  0.63044080     0.12600
S1079       S  0.12740277  0.94833290  0.65017150    -0.05600
C1080       C  0.11312023  0.97869306  0.65379767    -0.09100
C1081       C  0.12888987  0.99962034  0.64231364    -0.25700
S1082       S  0.22149678  0.00794553  0.58235439    -0.02900
C1083       C  0.23384753  0.97705382  0.57544088    -0.16300
C1084       C  0.21904517  0.95675225  0.59012144    -0.14300
H1085       H  0.17798647  0.92953317  0.62230749     0.21000
H1086       H  0.17179384  0.02748077  0.61383379     0.17100
H1087       H  0.12326626  0.02006012  0.64271015     0.19600
H1088       H  0.22287595  0.93604182  0.58635826     0.12900
C1089       C  0.37224699  0.96545883  0.90830414     0.16800
C1090       C  0.35988120  0.95451592  0.93771339    -0.32200
C1091       C  0.34211890  0.97021257  0.95592522     0.21200
C1092       C  0.33703312  0.99573553  0.94553542     0.03400
C1093       C  0.34951278  0.00673578  0.91622043    -0.21900
C1094       C  0.36701767  0.99091920  0.89774123     0.12600
S1095       S  0.39446458  0.94965626  0.88279124    -0.05600
C1096       C  0.39660983  0.97760306  0.85745556    -0.09100
C1097       C  0.38077600  0.99793191  0.86834254    -0.25700
S1098       S  0.31273700  0.01045591  0.96874915    -0.02900
C1099       C  0.30937465  0.98195150  0.99271677    -0.16300
C1100       C  0.32638413  0.96226556  0.98309071    -0.14300
H1101       H  0.36354166  0.93447302  0.94563714     0.21000
H1102       H  0.34522587  0.02648476  0.90763925     0.17100
H1103       H  0.38005902  0.01711034  0.85612240     0.19600
H1104       H  0.32552229  0.94238127  0.99324741     0.12900
C1105       C  0.36293762  0.03350060  0.63107499     0.16800
C1106       C  0.34914455  0.03376449  0.59926373    -0.32200
C1107       C  0.32728376  0.01656383  0.59557025     0.21200
C1108       C  0.31906474  0.00035404  0.62271384     0.03400
C1109       C  0.33255472  0.00046404  0.65478578    -0.21900
C1110       C  0.35484213  0.01716953  0.65816256     0.12600
S1111       S  0.39185242  0.05031396  0.63893180    -0.05600
C1112       C  0.39349805  0.03478082  0.67889271    -0.09100
C1113       C  0.37212680  0.01806306  0.68586405    -0.25700
S1114       S  0.29308499  0.97982508  0.61234177    -0.02900
C1115       C  0.29350507  0.99289148  0.57073938    -0.16300
C1116       C  0.31265246  0.01245222  0.56572844    -0.14300
H1117       H  0.35587735  0.04597947  0.57776693     0.21000
H1118       H  0.32659723  0.98728762  0.67566929     0.17100
H1119       H  0.37029173  0.00576039  0.70884237     0.19600
H1120       H  0.31604138  0.02287752  0.54154186     0.12900
C1121       C  0.80904182  0.01208837  0.90815870     0.16800
C1122       C  0.83089390  0.99772774  0.89706297    -0.32200
C1123       C  0.84998455  0.01097260  0.87665286     0.21200
C1124       C  0.84683912  0.03697374  0.86675585     0.03400
C1125       C  0.82480096  0.05103601  0.87704906    -0.21900
C1126       C  0.80635851  0.03818838  0.89846917     0.12600
S1127       S  0.78574814  0.00115585  0.93733232    -0.05600
C1128       C  0.77309840  0.03236395  0.93720063    -0.09100
C1129       C  0.78576314  0.04983566  0.91489612    -0.25700
S1130       S  0.87259791  0.05032296  0.84414771    -0.02900
C1131       C  0.88831861  0.02079364  0.84842113    -0.16300
C1132       C  0.87383187  0.00142789  0.86592319    -0.14300
H1133       H  0.83359397  0.97764581  0.90550249     0.21000
H1134       H  0.82285818  0.07157871  0.87025212     0.17100
H1135       H  0.78126704  0.07051426  0.91274895     0.19600
H1136       H  0.88063683  0.98179510  0.87129995     0.12900
C1137       C  0.66410342  0.04195514  0.56279780     0.16800
C1138       C  0.64269649  0.04888555  0.58372078    -0.32200
C1139       C  0.63753960  0.03360551  0.61348996     0.21200
C1140       C  0.65275308  0.01214724  0.62181350     0.03400
C1141       C  0.67393927  0.00500609  0.60065028    -0.21900
C1142       C  0.67930920  0.02048306  0.57114328     0.12600
S1143       S  0.67523495  0.05956140  0.52766474    -0.05600
C1144       C  0.70047052  0.03765479  0.52411106    -0.09100
C1145       C  0.70021776  0.01790509  0.54894180    -0.25700
S1146       S  0.64347100  0.99631459  0.65922823    -0.02900
C1147       C  0.61881431  0.01886475  0.66378382    -0.16300
C1148       C  0.61803307  0.03758112  0.63750458    -0.14300
H1149       H  0.63099819  0.06584854  0.57757404     0.21000
H1150       H  0.68607168  0.98846745  0.60732190     0.17100
H1151       H  0.71540717  0.00340237  0.55177193     0.19600
H1152       H  0.60373773  0.05305702  0.63580168     0.12900
C1153       C  0.68154987  0.98345616  0.93036302     0.16800
C1154       C  0.65823900  0.96931875  0.92237351    -0.32200
C1155       C  0.64995251  0.96883012  0.88734441     0.22800
C1156       C  0.66483965  0.98087213  0.86129921     0.03400
C1157       C  0.68843869  0.99438654  0.86918265    -0.21900
C1158       C  0.69606619  0.99588433  0.90433270     0.12600
S1159       S  0.69259379  0.99014439  0.97166229    -0.05600
C1160       C  0.71639762  0.01085849  0.95380789    -0.09100
C1161       C  0.71608454  0.01143189  0.91752379    -0.25700
S1162       S  0.65012466  0.98092455  0.82126902    -0.02900
C1163       C  0.62309480  0.96541345  0.83988618    -0.16300
C1164       C  0.62602537  0.95963071  0.87510663    -0.14300
H1165       H  0.64619006  0.96065298  0.94282751     0.21000
H1166       H  0.69940327  0.00484041  0.84911016     0.17100
H1167       H  0.72829241  0.02430626  0.90157875     0.19600
H1168       H  0.61067681  0.95118405  0.89149487     0.12900
C1169       C  0.02992486  0.17747728  0.91679802     0.16800
C1170       C  0.03410754  0.16525481  0.88459957    -0.32200
C1171       C  0.01574059  0.14602038  0.87379612     0.21200
C1172       C  0.99440828  0.13868482  0.89444981     0.03400
C1173       C  0.99036823  0.15072020  0.92706537    -0.21900
C1174       C  0.00853334  0.17048229  0.93760083     0.12600
S1175       S  0.04817271  0.20356969  0.93179265    -0.05600
C1176       C  0.02662070  0.20562852  0.96627011    -0.09100
C1177       C  0.00671283  0.18648149  0.96650449    -0.25700
S1178       S  0.97460970  0.11463357  0.87630756    -0.02900
C1179       C  0.99530453  0.11476705  0.84051568    -0.16300
C1180       C  0.01627738  0.13254742  0.84286722    -0.14300
H1181       H  0.05052536  0.17112811  0.86810626     0.21000
H1182       H  0.97347272  0.14543887  0.94302658     0.17100
H1183       H  0.99051302  0.18587734  0.98489738     0.19600
H1184       H  0.03162761  0.13493584  0.82341881     0.12900
C1185       C  0.04977712  0.13749791  0.60851085     0.16800
C1186       C  0.05456417  0.15156516  0.57755448    -0.32200
C1187       C  0.04141342  0.17534234  0.57289847     0.21200
C1188       C  0.02451755  0.18489234  0.59814988     0.03400
C1189       C  0.02003557  0.17101807  0.62935867    -0.21900
C1190       C  0.03296763  0.14707374  0.63385469     0.12600
S1191       S  0.06208134  0.10723828  0.61772589    -0.05600
C1192       C  0.04433185  0.10730385  0.65614973    -0.09100
C1193       C  0.02999463  0.12997509  0.66144518    -0.25700
S1194       S  0.00998665  0.21377308  0.58712731    -0.02900
C1195       C  0.02676744  0.21298492  0.54794970    -0.16300
C1196       C  0.04285023  0.19138001  0.54409221    -0.14300
H1197       H  0.06746970  0.14398134  0.55758628     0.21000
H1198       H  0.00662710  0.17829022  0.64894441     0.17100
H1199       H  0.01704734  0.13319620  0.68344490     0.19600
H1200       H  0.05513320  0.18766696  0.52160602     0.12900
C1201       C  0.99007192  0.34290086  0.62501655     0.16800
C1202       C  0.98279088  0.31838386  0.61070339    -0.32200
C1203       C  0.00268909  0.30332823  0.59574845     0.21200
C1204       C  0.02883359  0.31185713  0.59615697     0.03400
C1205       C  0.03621589  0.33607926  0.61131646    -0.21900
C1206       C  0.01616748  0.35159118  0.62505705     0.12600
S1207       S  0.96848738  0.36522253  0.64096343    -0.05600
C1208       C  0.99479901  0.38680309  0.64701116    -0.09100
C1209       C  0.01902438  0.37677493  0.63774297    -0.25700
S1210       S  0.04930649  0.29286352  0.57197188    -0.02900
C1211       C  0.02231444  0.27359669  0.56048936    -0.16300
C1212       C  0.99890562  0.28122732  0.57559313    -0.14300
H1213       H  0.96229575  0.31202785  0.60942173     0.21000
H1214       H  0.05645879  0.34326442  0.61042874     0.17100
H1215       H  0.03766935  0.38748011  0.63965900     0.19600
H1216       H  0.97970937  0.27296291  0.56878155     0.12900
C1217       C  0.98749960  0.84615519  0.63565946     0.16800
C1218       C  0.97422354  0.82476525  0.62024238    -0.32200
C1219       C  0.98130827  0.81790616  0.58621996     0.21200
C1220       C  0.00066559  0.83173942  0.56796211     0.03400
C1221       C  0.01381834  0.85350798  0.58332384    -0.21900
C1222       C  0.00683660  0.86028893  0.61770704     0.12600
S1223       S  0.98142196  0.85726462  0.67670368    -0.05600
C1224       C  0.00500263  0.88157785  0.66991504    -0.09100
C1225       C  0.01710470  0.88073858  0.63740208    -0.25700
S1226       S  0.00767809  0.81846642  0.52790338    -0.02900
C1227       C  0.98450322  0.79397551  0.53645107    -0.16300
C1228       C  0.97183487  0.79654505  0.56820226    -0.14300
H1229       H  0.95926276  0.81363584  0.63441790     0.21000
H1230       H  0.02911768  0.86433082  0.56939862     0.17100
H1231       H  0.03183804  0.89483654  0.62825345     0.19600
H1232       H  0.95755441  0.78245495  0.57856749     0.12900
C1233       C  0.98074822  0.81445746  0.90533632     0.16800
C1234       C  0.98439912  0.82864224  0.87423210    -0.32200
C1235       C  0.97131328  0.85258713  0.87082614     0.21200
C1236       C  0.95509933  0.86185974  0.89705693     0.03400
C1237       C  0.95104820  0.84742288  0.92784088    -0.21900
C1238       C  0.96438589  0.82366734  0.93142406     0.12600
S1239       S  0.99586972  0.78568659  0.91535364    -0.05600
C1240       C  0.98010858  0.78611107  0.95525441    -0.09100
C1241       C  0.96378858  0.80742355  0.95998153    -0.25700
S1242       S  0.94261950  0.89224224  0.88911108    -0.02900
C1243       C  0.95947425  0.89259160  0.85001848    -0.16300
C1244       C  0.97365515  0.87000172  0.84357819    -0.14300
H1245       H  0.99739370  0.82165527  0.85395309     0.21000
H1246       H  0.93862516  0.85475627  0.94853229     0.17100
H1247       H  0.95206126  0.81086803  0.98308578     0.19600
H1248       H  0.98606119  0.86703196  0.82095654     0.12900
C1249       C  0.97341490  0.64715398  0.88165419     0.16800
C1250       C  0.95975671  0.66599582  0.90076828    -0.32200
C1251       C  0.97372088  0.68874625  0.91129981     0.21200
C1252       C  0.00000443  0.69286125  0.90265123     0.03400
C1253       C  0.01353465  0.67424507  0.88279811    -0.21900
C1254       C  0.99970883  0.65116590  0.87291729     0.12600
S1255       S  0.96044393  0.61742222  0.86896513    -0.05600
C1256       C  0.99081378  0.61006678  0.85186478    -0.09100
C1257       C  0.00983193  0.62991404  0.85569759    -0.25700
S1258       S  0.01437844  0.71974219  0.92239845    -0.02900
C1259       C  0.98471940  0.72536990  0.94262648    -0.16300
C1260       C  0.96481738  0.70746696  0.93387706    -0.14300
H1261       H  0.93944920  0.66251517  0.90848231     0.21000
H1262       H  0.03426873  0.67700981  0.87685029     0.17100
H1263       H  0.03001025  0.62874175  0.84674640     0.19600
H1264       H  0.94569154  0.70654155  0.94642324     0.12900
loop_ 
_geom_bond_atom_site_label_1 
_geom_bond_atom_site_label_2 
_geom_bond_distance 
_geom_bond_site_symmetry_2 
_ccdc_geom_bond_type 
N1            C2   1.359       .  A
N1          C637   1.360       .  A
N1          C608   1.444       .  S
C2          C627   1.467       .  S
C2          C635   1.380       .  A
C3            C4   1.367       .  A
C3          C634   1.380   1_554  A
C3            H6   1.082       .  S
C4            C5   1.383       .  A
C4            H7   1.082       .  S
C5          N633   1.360   1_554  A
C5          C595   1.474       .  S
N8            C9   1.359       .  A
N8          C644   1.360   1_554  A
N8          C563   1.445       .  S
C9          C579   1.466       .  S
C9          C642   1.379   1_554  A
C10          C11   1.367       .  A
C10         C641   1.379       .  A
C10          H13   1.082       .  S
C11          C12   1.381       .  A
C11          H14   1.082       .  S
C12         N640   1.360       .  A
C12         C544   1.468       .  S
N15          C16   1.358       .  A
N15         C651   1.360       .  A
N15         C528   1.446       .  S
C16         C496   1.472       .  S
C16         C649   1.382       .  A
C17          C18   1.371   1_556  A
C17         C648   1.382       .  A
C17          H20   1.082       .  S
C18          C19   1.379       .  A
C18          H21   1.082       .  S
C19         N647   1.360   1_554  A
C19         C512   1.466       .  S
N22          C23   1.358       .  A
N22         C658   1.359       .  A
N22         C483   1.445       .  S
C23         C451   1.468       .  S
C23         C656   1.381       .  A
C24          C25   1.369       .  A
C24         C655   1.381       .  A
C24          H27   1.082       .  S
C25          C26   1.380       .  A
C25          H28   1.082       .  S
C26         N654   1.359       .  A
C26         C467   1.465       .  S
N29          C30   1.356       .  A
N29         C665   1.357       .  A
N29         C432   1.443       .  S
C30         C400   1.465       .  S
C30         C663   1.380       .  A
C31          C32   1.371       .  A
C31         C662   1.380   1_554  A
C31          H34   1.082       .  S
C32          C33   1.380       .  A
C32          H35   1.082       .  S
C33         N661   1.357   1_554  A
C33         C416   1.463       .  S
N36          C37   1.358       .  A
N36         C672   1.362   1_554  A
N36         C387   1.442       .  S
C37         C355   1.470       .  S
C37         C670   1.379   1_554  A
C38          C39   1.370       .  A
C38         C669   1.379       .  A
C38          H41   1.082       .  S
C39          C40   1.384       .  A
C39          H42   1.082       .  S
C40         N668   1.362       .  A
C40         C371   1.478       .  S
N43          C44   1.356       .  A
N43         C679   1.358   1_554  A
N43         C323   1.443       .  S
C44         C336   1.465       .  S
C44         C677   1.380   1_554  A
C45          C46   1.371       .  A
C45         C676   1.380       .  A
C45          H48   1.082       .  S
C46          C47   1.381       .  A
C46          H49   1.082       .  S
C47         N675   1.358       .  A
C47         C307   1.468       .  S
N50          C51   1.356       .  A
N50         C686   1.359       .  A
N50         C272   1.446       .  S
C51         C288   1.461       .  S
C51         C684   1.379       .  A
C52          C53   1.369   1_556  A
C52         C683   1.379       .  A
C52          H55   1.082       .  S
C53          C54   1.381       .  A
C53          H56   1.082       .  S
C54         N682   1.359   1_554  A
C54         C259   1.465       .  S
O57         Mg59   2.139       .  S
O57         Mg65   2.141       .  S
O57          C92   1.239       .  S
C58          H97   1.081       .  S
C58          O71   1.237       .  S
C58          O95   1.270       .  A
Mg59         O88   2.140       .  S
Mg59        O103   2.332       .  S
Mg59         O99   2.277       .  S
Mg59         O70   2.303       .  S
O60        Mg102   2.138       .  S
O60         Mg85   2.122       .  S
O60          C81   1.238       .  S
O61          C92   1.273       .  A
O61         Mg85   2.302       .  S
C62         C368   1.473       .  S
C62          O64   1.270       .  A
C62          O76   1.274       .  A
O63          C91   1.271       .  A
O63         Mg65   2.292       .  S
O64         Mg96   2.255       .  S
Mg65         O71   2.121       .  S
Mg65         O79   2.225       .  S
Mg65         O67   2.280       .  S
C66         C291   1.467       .  S
C66         O104   1.269       .  A
C66          O72   1.274       .  A
O67          C74   1.271       .  A
H68          C81   1.081       .  S
C69          H94   1.081       .  S
C69          O83   1.240       .  S
C69          O84   1.274       .  A
O70          C93   1.271       .  A
O71         Mg85   2.142       .  S
O72        Mg102   2.312       .  S
C73         C435   1.476       .  S
C73          O86   1.273       .  A
C73          O78   1.277       .  A
C74         C419   1.468       .  S
C74         O101   1.272       .  A
Mg75         O82   2.126       .  S
Mg75         O83   2.134       .  S
Mg75         O76   2.317       .  S
Mg75         O77   2.301       .  S
Mg75        O104   2.226       .  S
O77          C81   1.272       .  A
O78         Mg85   2.317       .  S
O79          C98   1.269       .  A
O80         C100   1.276       .  A
O80         Mg96   2.309       .  S
O82         Mg96   2.126       .  S
O82          C93   1.238       .  S
O83        Mg102   2.144       .  S
O84         Mg96   2.311       .  S
Mg85        O101   2.266       .  S
O86        Mg102   2.271       .  S
H87          C92   1.081       .  S
O88         Mg96   2.120       .  S
O88          C91   1.238       .  S
H89          C91   1.081       .  S
H90          C93   1.081       .  S
O95        Mg102   2.297       .  S
C98         C339   1.470       .  S
C98         O103   1.278       .  A
O99         C100   1.274       .  A
C100        C384   1.475       .  S
O105       Mg107   2.136       .  S
O105       Mg113   2.138       .  S
O105        C140   1.240       .  S
C106        H145   1.081       .  S
C106        O119   1.237       .  S
C106        O143   1.271       .  A
Mg107       O136   2.134       .  S
Mg107       O151   2.337       .  S
Mg107       O147   2.267       .  S
Mg107       O118   2.307   1_545  S
O108       Mg150   2.146       .  S
O108       Mg133   2.120       .  S
O108        C129   1.236       .  S
O109        C140   1.274   1_565  A
O109       Mg133   2.303       .  S
C110        C464   1.468       .  S
C110        O112   1.272       .  A
C110        O124   1.272       .  A
O111        C139   1.272       .  A
O111       Mg113   2.300       .  S
O112       Mg144   2.264   1_565  S
Mg113       O119   2.132       .  S
Mg113       O127   2.248       .  S
Mg113       O115   2.299       .  S
C114        C403   1.475       .  S
C114        O152   1.273       .  A
C114        O120   1.277       .  A
O115        C122   1.274       .  A
H116        C129   1.081       .  S
C117        H142   1.081   1_565  S
C117        O131   1.240       .  S
C117        O132   1.274   1_565  A
O118        C141   1.272       .  A
O119       Mg133   2.142   1_545  S
O120       Mg150   2.324       .  S
C121        C531   1.473       .  S
C121        O134   1.275       .  A
C121        O126   1.275       .  A
C122        C515   1.471       .  S
C122        O149   1.271   1_545  A
Mg123       O130   2.140       .  S
Mg123       O131   2.149       .  S
Mg123       O124   2.281       .  S
Mg123       O125   2.288       .  S
Mg123       O152   2.257       .  S
O125        C129   1.269       .  A
O126       Mg133   2.296       .  S
O127        C146   1.271       .  A
O128        C148   1.279       .  A
O128       Mg144   2.333       .  S
O130       Mg144   2.145   1_565  S
O130        C141   1.237       .  S
O131       Mg150   2.137       .  S
O132       Mg144   2.305       .  S
Mg133       O149   2.260       .  S
O134       Mg150   2.278       .  S
H135        C140   1.080   1_565  S
O136       Mg144   2.133       .  S
O136        C139   1.238       .  S
H137        C139   1.081       .  S
H138        C141   1.081       .  S
O143       Mg150   2.299   1_545  S
C146        C352   1.475       .  S
C146        O151   1.278       .  A
O147        C148   1.273       .  A
C148        C480   1.479       .  S
O153       Mg155   2.144   1_565  S
O153       Mg161   2.136       .  S
O153        C188   1.240   1_455  S
C154        H193   1.081       .  S
C154        O167   1.238       .  S
C154        O191   1.273       .  A
Mg155       O184   2.135       .  S
Mg155       O199   2.330       .  S
Mg155       O195   2.277       .  S
Mg155       O166   2.301   1_455  S
O156       Mg198   2.136       .  S
O156       Mg181   2.118       .  S
O156        C177   1.238       .  S
O157        C188   1.275       .  A
O157       Mg181   2.313       .  S
C158        C547   1.471       .  S
C158        O160   1.273   1_655  A
C158        O172   1.272       .  A
O159        C187   1.272   1_565  A
O159       Mg161   2.302       .  S
O160       Mg192   2.263       .  S
Mg161       O167   2.146       .  S
Mg161       O175   2.254       .  S
Mg161       O163   2.322       .  S
C162        C499   1.473       .  S
C162        O200   1.270       .  A
C162        O168   1.277   1_545  A
O163        C170   1.275       .  A
H164        C177   1.081       .  S
C165        H190   1.081       .  S
C165        O179   1.240   1_455  S
C165        O180   1.274       .  A
O166        C189   1.271       .  A
O167       Mg181   2.128   1_455  S
O168       Mg198   2.332       .  S
C169        C611   1.477       .  S
C169        O182   1.273       .  A
C169        O174   1.276       .  A
C170        C592   1.470       .  S
C170        O197   1.268   1_455  A
Mg171       O178   2.133       .  S
Mg171       O179   2.137       .  S
Mg171       O172   2.291       .  S
Mg171       O173   2.294       .  S
Mg171       O200   2.238       .  S
O173        C177   1.271   1_545  A
O174       Mg181   2.318       .  S
O175        C194   1.272       .  A
O176        C196   1.279       .  A
O176       Mg192   2.335       .  S
O178       Mg192   2.133   1_655  S
O178        C189   1.237       .  S
O179       Mg198   2.133   1_545  S
O180       Mg192   2.307       .  S
Mg181       O197   2.234       .  S
O182       Mg198   2.273       .  S
H183        C188   1.081       .  S
O184       Mg192   2.131       .  S
O184        C187   1.239       .  S
H185        C187   1.081       .  S
H186        C189   1.081       .  S
O191       Mg198   2.309   1_455  S
C194        C448   1.475       .  S
C194        O199   1.278   1_565  A
O195        C196   1.275       .  A
C196        C560   1.480       .  S
O201       Mg203   2.132   1_655  S
O201       Mg209   2.141       .  S
O201        C236   1.240       .  S
C202        H241   1.081       .  S
C202        O215   1.237       .  S
C202        O239   1.270       .  A
Mg203       O232   2.138       .  S
Mg203       O247   2.317       .  S
Mg203       O243   2.276       .  S
Mg203       O214   2.308       .  S
O204       Mg246   2.138       .  S
O204       Mg229   2.141       .  S
O204        C225   1.240       .  S
O205        C236   1.273       .  A
O205       Mg229   2.304       .  S
C206        C304   1.472       .  S
C206        O208   1.269       .  A
C206        O220   1.278       .  A
O207        C235   1.271   1_655  A
O207       Mg209   2.296       .  S
O208       Mg240   2.229       .  S
Mg209       O215   2.126       .  S
Mg209       O223   2.257       .  S
Mg209       O211   2.292       .  S
C210        C624   1.473       .  S
C210        O248   1.274   1_655  A
C210        O216   1.273       .  A
O211        C218   1.273       .  A
H212        C225   1.081       .  S
C213        H238   1.080       .  S
C213        O227   1.237       .  S
C213        O228   1.271       .  A
O214        C237   1.273       .  A
O215       Mg229   2.138       .  S
O216       Mg246   2.290       .  S
C217        C275   1.477       .  S
C217        O230   1.271       .  A
C217        O222   1.280       .  A
C218        C256   1.472       .  S
C218        O245   1.275       .  A
Mg219       O226   2.150       .  S
Mg219       O227   2.141       .  S
Mg219       O220   2.342       .  S
Mg219       O221   2.307   1_455  S
Mg219       O248   2.279       .  S
O221        C225   1.274       .  A
O222       Mg229   2.341       .  S
O223        C242   1.271       .  A
O224        C244   1.275       .  A
O224       Mg240   2.307       .  S
O226       Mg240   2.136       .  S
O226        C237   1.239       .  S
O227       Mg246   2.128   1_455  S
O228       Mg240   2.301       .  S
Mg229       O245   2.277       .  S
O230       Mg246   2.252       .  S
H231        C236   1.081       .  S
O232       Mg240   2.119       .  S
O232        C235   1.238       .  S
H233        C235   1.081       .  S
H234        C237   1.081       .  S
O239       Mg246   2.295       .  S
C242        C576   1.473       .  S
C242        O247   1.276   1_655  A
O243        C244   1.273       .  A
C244        C320   1.477       .  S
C249        C254   1.387       .  A
C249        C250   1.404       .  A
C249        S255   1.707       .  A
C250        C251   1.403       .  A
C250        H261   1.083       .  S
C251        C260   1.373       .  A
C251        C252   1.388       .  A
C252        C253   1.398       .  A
C252        S258   1.699       .  A
C253        C254   1.398       .  A
C253        H262   1.083       .  S
C254        C257   1.369       .  A
S255        C256   1.726       .  A
C256        C257   1.385       .  A
C257        H263   1.083       .  S
S258        C259   1.719       .  A
C259        C260   1.385       .  A
C260        H264   1.083       .  S
C265        C270   1.386       .  A
C265        C266   1.403       .  A
C265        S271   1.704       .  A
C266        C267   1.403       .  A
C266        H277   1.083       .  S
C267        C276   1.375       .  A
C267        C268   1.387       .  A
C268        C269   1.403       .  A
C268        S274   1.705       .  A
C269        C270   1.403       .  A
C269        H278   1.083       .  S
C270        C273   1.374       .  A
S271        C272   1.728       .  A
C272        C273   1.389       .  A
C273        H279   1.081       .  S
S274        C275   1.726       .  A
C275        C276   1.388       .  A
C276        H280   1.083       .  S
C281        C286   1.388       .  A
C281        C282   1.395       .  A
C281        S287   1.703       .  A
C282        C283   1.398       .  A
C282        H293   1.083       .  S
C283        C292   1.361       .  A
C283        C284   1.387       .  A
C284        C285   1.401       .  A
C284        S290   1.710       .  A
C285        C286   1.404       .  A
C285        H294   1.083       .  S
C286        C289   1.367       .  A
S287        C288   1.716       .  A
C288        C289   1.384       .  A
C289        H927   1.083       .  S
S290        C291   1.723       .  A
C291        C292   1.384       .  A
C292        H296   1.083       .  S
H295        C921   1.083       .  S
C297        C302   1.387       .  A
C297        C298   1.394       .  A
C297        S303   1.695       .  A
C298        C299   1.395       .  A
C298        H309   1.083       .  S
C299        C308   1.363       .  A
C299        C300   1.387       .  A
C300        C301   1.407       .  A
C300        S306   1.714       .  A
C301        C302   1.408       .  A
C301        H310   1.083       .  S
C302        C305   1.378       .  A
S303        C304   1.722       .  A
C304        C305   1.390       .  A
C305        H311   1.083       .  S
S306        C307   1.725       .  A
C307        C308   1.379       .  A
C308        H312   1.084       .  S
C313        C318   1.387       .  A
C313        C314   1.402       .  A
C313        S319   1.706       .  A
C314        C315   1.402       .  A
C314        H325   1.083       .  S
C315        C324   1.371       .  A
C315        C316   1.387       .  A
C316        C317   1.403       .  A
C316        S322   1.707       .  A
C317        C318   1.404       .  A
C317        H326   1.083       .  S
C318        C321   1.374       .  A
S319        C320   1.724       .  A
C320        C321   1.389       .  A
C321        H327   1.083       .  S
S322        C323   1.726       .  A
C323        C324   1.387       .  A
C324        H328   1.082       .  S
C329        C334   1.387       .  A
C329        C330   1.405       .  A
C329        S335   1.709       .  A
C330        C331   1.405       .  A
C330        H341   1.082       .  S
C331        C340   1.375       .  A
C331        C332   1.387       .  A
C332        C333   1.396       .  A
C332        S338   1.697       .  A
C333        C334   1.397       .  A
C333        H342   1.083       .  S
C334        C337   1.366       .  A
S335        C336   1.722       .  A
C336        C337   1.381       .  A
C337        H343   1.083       .  S
S338        C339   1.722       .  A
C339        C340   1.388       .  A
C340        H344   1.083       .  S
C345        C350   1.387       .  A
C345        C346   1.398       .  A
C345        S351   1.702       .  A
C346        C347   1.399       .  A
C346        H357   1.083       .  S
C347        C356   1.367       .  A
C347        C348   1.387       .  A
C348        C349   1.406       .  A
C348        S354   1.712       .  A
C349        C350   1.406       .  A
C349        H358   1.083       .  S
C350        C353   1.376       .  A
S351        C352   1.723       .  A
C352        C353   1.389       .  A
C353        H359   1.083       .  S
S354        C355   1.723       .  A
C355        C356   1.383       .  A
C356        H360   1.084       .  S
C361        C366   1.387       .  A
C361        C362   1.397       .  A
C361        S367   1.703       .  A
C362        C363   1.399       .  A
C362        H373   1.083       .  S
C363        C372   1.365       .  A
C363        C364   1.386       .  A
C364        C365   1.406       .  A
C364        S370   1.716       .  A
C365        C366   1.408       .  A
C365        H374   1.083       .  S
C366        C369   1.375       .  A
S367        C368   1.721       .  A
C368        C369   1.390       .  A
C369        H375   1.083       .  S
S370        C371   1.726       .  A
C371        C372   1.385       .  A
C372        H376   1.084       .  S
C377        C382   1.386       .  A
C377        C378   1.403       .  A
C377        S383   1.710       .  A
C378        C379   1.404       .  A
C378        H389   1.083       .  S
C379        C388   1.372       .  A
C379        C380   1.387       .  A
C380        C381   1.402       .  A
C380        S386   1.706       .  A
C381        C382   1.403       .  A
C381        H390   1.083       .  S
C382        C385   1.371       .  A
S383        C384   1.724       .  A
C384        C385   1.388       .  A
C385        H391   1.083       .  S
S386        C387   1.725       .  A
C387        C388   1.388       .  A
C388        H392   1.082       .  S
C393        C398   1.387       .  A
C393        C394   1.399       .  A
C393        S399   1.705       .  A
C394        C395   1.401       .  A
C394        H405   1.083       .  S
C395        C404   1.368       .  A
C395        C396   1.386       .  A
C396        C397   1.402       .  A
C396        S402   1.710       .  A
C397        C398   1.404       .  A
C397        H406   1.083       .  S
C398        C401   1.370       .  A
S399        C400   1.719       .  A
C400        C401   1.384       .  A
C401        H407   1.083       .  S
S402        C403   1.724       .  A
C403        C404   1.387       .  A
C404        H408   1.083       .  S
C409        C414   1.387       .  A
C409        C410   1.400       .  A
C409        S415   1.703       .  A
C410        C411   1.400       .  A
C410        H421   1.083       .  S
C411        C420   1.368       .  A
C411        C412   1.387       .  A
C412        C413   1.401       .  A
C412        S418   1.705       .  A
C413        C414   1.401       .  A
C413        H422   1.083       .  S
C414        C417   1.369       .  A
S415        C416   1.719       .  A
C416        C417   1.383       .  A
C417        H423   1.083       .  S
S418        C419   1.724       .  A
C419        C420   1.385       .  A
C420        H424   1.083       .  S
C425        C430   1.386       .  A
C425        C426   1.401       .  A
C425        S431   1.705       .  A
C426        C427   1.401       .  A
C426        H437   1.083       .  S
C427        C436   1.370       .  A
C427        C428   1.387       .  A
C428        C429   1.404       .  A
C428        S434   1.710       .  A
C429        C430   1.405       .  A
C429        H438   1.083       .  S
C430        C433   1.373       .  A
S431        C432   1.725       .  A
C432        C433   1.390       .  A
C433        H439   1.081       .  S
S434        C435   1.726       .  A
C435        C436   1.387       .  A
C436        H440   1.083       .  S
C441        C446   1.387       .  A
C441        C442   1.399       .  A
C441        S447   1.703       .  A
C442        C443   1.400       .  A
C442        H453   1.083       .  S
C443        C452   1.367       .  A
C443        C444   1.387       .  A
C444        C445   1.405   1_565  A
C444        S450   1.711   1_565  A
C445        C446   1.406   1_545  A
C445        H454   1.082       .  S
C446        C449   1.375       .  A
S447        C448   1.723       .  A
C448        C449   1.389       .  A
C449        H455   1.083   1_565  S
S450        C451   1.722   1_545  A
C451        C452   1.383       .  A
C452        H456   1.083       .  S
C457        C462   1.387       .  A
C457        C458   1.400       .  A
C457        S463   1.705       .  A
C458        C459   1.401       .  A
C458        H469   1.083       .  S
C459        C468   1.368       .  A
C459        C460   1.386       .  A
C460        C461   1.401   1_565  A
C460        S466   1.705   1_565  A
C461        C462   1.401   1_545  A
C461        H470   1.083       .  S
C462        C465   1.369       .  A
S463        C464   1.723       .  A
C464        C465   1.386       .  A
C465        H471   1.083   1_565  S
S466        C467   1.721   1_545  A
C467        C468   1.384       .  A
C468        H472   1.083       .  S
C473        C478   1.387       .  A
C473        C474   1.403       .  A
C473        S479   1.707       .  A
C474        C475   1.404       .  A
C474        H485   1.083       .  S
C475        C484   1.374       .  A
C475        C476   1.386       .  A
C476        C477   1.404       .  A
C476        S482   1.708   1_545  A
C477        C478   1.405       .  A
C477        H486   1.083   1_545  S
C478        C481   1.375       .  A
S479        C480   1.725       .  A
C480        C481   1.389       .  A
C481        H487   1.083       .  S
S482        C483   1.726       .  A
C483        C484   1.388   1_565  A
C484        H488   1.080       .  S
C489        C494   1.387       .  A
C489        C490   1.406   1_545  A
C489        S495   1.712       .  A
C490        C491   1.406   1_565  A
C490        H501   1.082       .  S
C491        C500   1.376       .  A
C491        C492   1.387       .  A
C492        C493   1.397       .  A
C492        S498   1.699       .  A
C493        C494   1.397       .  A
C493        H502   1.083       .  S
C494        C497   1.365       .  A
S495        C496   1.723       .  A
C496        C497   1.382       .  A
C497        H503   1.083       .  S
S498        C499   1.722       .  A
C499        C500   1.389       .  A
C500        H504   1.083   1_545  S
C505        C510   1.387       .  A
C505        C506   1.401       .  A
C505        S511   1.707       .  A
C506        C507   1.402       .  A
C506        H517   1.083       .  S
C507        C516   1.369       .  A
C507        C508   1.387       .  A
C508        C509   1.400       .  A
C508        S514   1.706   1_545  A
C509        C510   1.401       .  A
C509        H518   1.083   1_545  S
C510        C513   1.368       .  A
S511        C512   1.720       .  A
C512        C513   1.384       .  A
C513        H519   1.083       .  S
S514        C515   1.723   1_565  A
C515        C516   1.387       .  A
C516        H520   1.083       .  S
C521        C526   1.385       .  A
C521        C522   1.403       .  A
C521        S527   1.707       .  A
C522        C523   1.404       .  A
C522        H533   1.083       .  S
C523        C532   1.373       .  A
C523        C524   1.387       .  A
C524        C525   1.399       .  A
C524        S530   1.703       .  A
C525        C526   1.400       .  A
C525        H534   1.083   1_565  S
C526        C529   1.368   1_565  A
S527        C528   1.727   1_565  A
C528        C529   1.389       .  A
C529        H535   1.081       .  S
S530        C531   1.723       .  A
C531        C532   1.389       .  A
C532        H536   1.083       .  S
C537        C542   1.388       .  A
C537        C538   1.396       .  A
C537        S543   1.698       .  A
C538        C539   1.397       .  A
C538        H549   1.083       .  S
C539        C548   1.366       .  A
C539        C540   1.386   1_455  A
C540        C541   1.405       .  A
C540        S546   1.710       .  A
C541        C542   1.406   1_655  A
C541        H550   1.083       .  S
C542        C545   1.375       .  A
S543        C544   1.719       .  A
C544        C545   1.387       .  A
C545        H551   1.083   1_455  S
S546        C547   1.727       .  A
C547        C548   1.383   1_655  A
C548        H552   1.083       .  S
C553        C558   1.386       .  A
C553        C554   1.404       .  A
C553        S559   1.709       .  A
C554        C555   1.404       .  A
C554        H565   1.082       .  S
C555        C564   1.374       .  A
C555        C556   1.386       .  A
C556        C557   1.405       .  A
C556        S562   1.710       .  A
C557        C558   1.405       .  A
C557        H566   1.083       .  S
C558        C561   1.375       .  A
S559        C560   1.725       .  A
C560        C561   1.390       .  A
C561        H567   1.083       .  S
S562        C563   1.726       .  A
C563        C564   1.389       .  A
C564        H568   1.082       .  S
C569        C574   1.387   1_655  A
C569        C570   1.401       .  A
C569        S575   1.706       .  A
C570        C571   1.402   1_655  A
C570        H581   1.083       .  S
C571        C580   1.370   1_455  A
C571        C572   1.387       .  A
C572        C573   1.402       .  A
C572        S578   1.705       .  A
C573        C574   1.402       .  A
C573        H582   1.083       .  S
C574        C577   1.371       .  A
S575        C576   1.724       .  A
C576        C577   1.387   1_655  A
C577        H583   1.083       .  S
S578        C579   1.722       .  A
C579        C580   1.384   1_455  A
C580        H584   1.083       .  S
C585        C590   1.387   1_655  A
C585        C586   1.395       .  A
C585        S591   1.698       .  A
C586        C587   1.396       .  A
C586        H597   1.084       .  S
C587        C596   1.362       .  A
C587        C588   1.386   1_655  A
C588        C589   1.406       .  A
C588        S594   1.714       .  A
C589        C590   1.407       .  A
C589        H598   1.083       .  S
C590        C593   1.374       .  A
S591        C592   1.721   1_655  A
C592        C593   1.389       .  A
C593        H599   1.083       .  S
S594        C595   1.725   1_455  A
C595        C596   1.382       .  A
C596        H600   1.084       .  S
C601        C606   1.386       .  A
C601        C602   1.403       .  A
C601        S607   1.709       .  A
C602        C603   1.405       .  A
C602        H613   1.083       .  S
C603        C612   1.373       .  A
C603        C604   1.387       .  A
C604        C605   1.402       .  A
C604        S610   1.709       .  A
C605        C606   1.403       .  A
C605        H614   1.083       .  S
C606        C609   1.371       .  A
S607        C608   1.725       .  A
C608        C609   1.389       .  A
C609        H615   1.082       .  S
S610        C611   1.724       .  A
C611        C612   1.389       .  A
C612        H616   1.083       .  S
C617        C622   1.387       .  A
C617        C618   1.399       .  A
C617        S623   1.703       .  A
C618        C619   1.400       .  A
C618        H629   1.083       .  S
C619        C628   1.367       .  A
C619        C620   1.386       .  A
C620        C621   1.403   1_655  A
C620        S626   1.707   1_655  A
C621        C622   1.403   1_455  A
C621        H630   1.083       .  S
C622        C625   1.373   1_655  A
S623        C624   1.723       .  A
C624        C625   1.388   1_655  A
C625        H631   1.083       .  S
S626        C627   1.723   1_455  A
C627        C628   1.384       .  A
C628        H632   1.084       .  S
N633        C634   1.359       .  A
N633       C1240   1.444       .  S
C634       C1259   1.467       .  S
C635        C636   1.367       .  A
C635        H638   1.082       .  S
C636        C637   1.383       .  A
C636        H639   1.082       .  S
C637       C1227   1.474       .  S
N640        C641   1.359       .  A
N640       C1195   1.445       .  S
C641       C1211   1.466       .  S
C642        C643   1.367       .  A
C642        H645   1.082       .  S
C643        C644   1.381       .  A
C643        H646   1.082       .  S
C644       C1176   1.468       .  S
N647        C648   1.358       .  A
N647       C1160   1.446       .  S
C648       C1128   1.472       .  S
C649        C650   1.371       .  A
C649        H652   1.082       .  S
C650        C651   1.379       .  A
C650        H653   1.082       .  S
C651       C1144   1.466       .  S
N654        C655   1.358       .  A
N654       C1115   1.445       .  S
C655       C1083   1.468       .  S
C656        C657   1.369   1_554  A
C656        H659   1.082       .  S
C657        C658   1.380   1_556  A
C657        H660   1.082       .  S
C658       C1099   1.465   1_554  S
N661        C662   1.356       .  A
N661       C1064   1.443       .  S
C662       C1032   1.465       .  S
C663        C664   1.371       .  A
C663        H666   1.082       .  S
C664        C665   1.380       .  A
C664        H667   1.082       .  S
C665       C1048   1.463       .  S
N668        C669   1.358       .  A
N668       C1019   1.442       .  S
C669        C987   1.470       .  S
C670        C671   1.370       .  A
C670        H673   1.082       .  S
C671        C672   1.384       .  A
C671        H674   1.082       .  S
C672       C1003   1.478       .  S
N675        C676   1.356       .  A
N675        C955   1.443       .  S
C676        C968   1.465       .  S
C677        C678   1.371       .  A
C677        H680   1.082       .  S
C678        C679   1.381       .  A
C678        H681   1.082       .  S
C679        C939   1.468       .  S
N682        C683   1.356       .  A
N682        C904   1.446       .  S
C683        C920   1.461       .  S
C684        C685   1.369       .  A
C684        H687   1.082       .  S
C685        C686   1.381       .  A
C685        H688   1.082       .  S
C686        C891   1.465       .  S
O689       Mg691   2.139       .  S
O689       Mg697   2.141       .  S
O689        C724   1.239       .  S
C690        H729   1.081       .  S
C690        O703   1.237       .  S
C690        O727   1.270       .  A
Mg691       O720   2.140       .  S
Mg691       O735   2.332       .  S
Mg691       O731   2.277       .  S
Mg691       O702   2.303       .  S
O692       Mg734   2.138       .  S
O692       Mg717   2.122       .  S
O692        C713   1.238       .  S
O693        C724   1.273       .  A
O693       Mg717   2.302       .  S
C694       C1000   1.473       .  S
C694        O696   1.270       .  A
C694        O708   1.274       .  A
O695        C723   1.271       .  A
O695       Mg697   2.292       .  S
O696       Mg728   2.255       .  S
Mg697       O703   2.121       .  S
Mg697       O711   2.225       .  S
Mg697       O699   2.280       .  S
C698        C923   1.467       .  S
C698        O736   1.269       .  A
C698        O704   1.274       .  A
O699        C706   1.271       .  A
H700        C713   1.081       .  S
C701        H726   1.081       .  S
C701        O715   1.240       .  S
C701        O716   1.274       .  A
O702        C725   1.271       .  A
O703       Mg717   2.142       .  S
O704       Mg734   2.312       .  S
C705       C1067   1.476       .  S
C705        O718   1.273       .  A
C705        O710   1.277       .  A
C706       C1051   1.468       .  S
C706        O733   1.272       .  A
Mg707       O714   2.126       .  S
Mg707       O715   2.134       .  S
Mg707       O708   2.317       .  S
Mg707       O709   2.301       .  S
Mg707       O736   2.226       .  S
O709        C713   1.272       .  A
O710       Mg717   2.317       .  S
O711        C730   1.269       .  A
O712        C732   1.276       .  A
O712       Mg728   2.309       .  S
O714       Mg728   2.126       .  S
O714        C725   1.238       .  S
O715       Mg734   2.144       .  S
O716       Mg728   2.311       .  S
Mg717       O733   2.266       .  S
O718       Mg734   2.271       .  S
H719        C724   1.081       .  S
O720       Mg728   2.120       .  S
O720        C723   1.238       .  S
H721        C723   1.081       .  S
H722        C725   1.081       .  S
O727       Mg734   2.297       .  S
C730        C971   1.470       .  S
C730        O735   1.278       .  A
O731        C732   1.274       .  A
C732       C1016   1.475       .  S
O737       Mg739   2.136       .  S
O737       Mg745   2.138       .  S
O737        C772   1.240       .  S
C738        H777   1.081       .  S
C738        O751   1.237       .  S
C738        O775   1.271       .  A
Mg739       O768   2.134       .  S
Mg739       O783   2.337       .  S
Mg739       O779   2.267       .  S
Mg739       O750   2.307   1_545  S
O740       Mg782   2.146       .  S
O740       Mg765   2.120       .  S
O740        C761   1.236       .  S
O741        C772   1.274   1_565  A
O741       Mg765   2.303       .  S
C742       C1096   1.468       .  S
C742        O744   1.272       .  A
C742        O756   1.272       .  A
O743        C771   1.272       .  A
O743       Mg745   2.300       .  S
O744       Mg776   2.264   1_565  S
Mg745       O751   2.132       .  S
Mg745       O759   2.248       .  S
Mg745       O747   2.299       .  S
C746       C1035   1.475       .  S
C746        O784   1.273       .  A
C746        O752   1.277       .  A
O747        C754   1.274       .  A
H748        C761   1.081       .  S
C749        H774   1.081   1_565  S
C749        O763   1.240       .  S
C749        O764   1.274   1_565  A
O750        C773   1.272       .  A
O751       Mg765   2.142   1_545  S
O752       Mg782   2.324       .  S
C753       C1163   1.473       .  S
C753        O766   1.275       .  A
C753        O758   1.275       .  A
C754       C1147   1.471       .  S
C754        O781   1.271   1_545  A
Mg755       O762   2.140       .  S
Mg755       O763   2.149       .  S
Mg755       O756   2.282       .  S
Mg755       O757   2.288       .  S
Mg755       O784   2.257       .  S
O757        C761   1.269       .  A
O758       Mg765   2.296       .  S
O759        C778   1.271       .  A
O760        C780   1.279       .  A
O760       Mg776   2.333       .  S
O762       Mg776   2.145   1_565  S
O762        C773   1.237       .  S
O763       Mg782   2.137       .  S
O764       Mg776   2.305       .  S
Mg765       O781   2.260       .  S
O766       Mg782   2.278       .  S
H767        C772   1.080   1_565  S
O768       Mg776   2.133       .  S
O768        C771   1.238       .  S
H769        C771   1.081       .  S
H770        C773   1.081       .  S
O775       Mg782   2.299   1_545  S
C778        C984   1.475       .  S
C778        O783   1.278       .  A
O779        C780   1.273       .  A
C780       C1112   1.479       .  S
O785       Mg787   2.143   1_565  S
O785       Mg793   2.136       .  S
O785        C820   1.240   1_455  S
C786        H825   1.081       .  S
C786        O799   1.238       .  S
C786        O823   1.273       .  A
Mg787       O816   2.135       .  S
Mg787       O831   2.330       .  S
Mg787       O827   2.277       .  S
Mg787       O798   2.301   1_455  S
O788       Mg830   2.136       .  S
O788       Mg813   2.118       .  S
O788        C809   1.238       .  S
O789        C820   1.275       .  A
O789       Mg813   2.313       .  S
C790       C1179   1.471       .  S
C790        O792   1.273   1_655  A
C790        O804   1.272       .  A
O791        C819   1.272   1_565  A
O791       Mg793   2.302       .  S
O792       Mg824   2.263       .  S
Mg793       O799   2.146       .  S
Mg793       O807   2.254       .  S
Mg793       O795   2.322       .  S
C794       C1131   1.473       .  S
C794        O832   1.270       .  A
C794        O800   1.277   1_545  A
O795        C802   1.275       .  A
H796        C809   1.081       .  S
C797        H822   1.081       .  S
C797        O811   1.240   1_455  S
C797        O812   1.274       .  A
O798        C821   1.271       .  A
O799       Mg813   2.128   1_455  S
O800       Mg830   2.332       .  S
C801       C1243   1.477       .  S
C801        O814   1.273       .  A
C801        O806   1.276       .  A
C802       C1224   1.470       .  S
C802        O829   1.268   1_455  A
Mg803       O810   2.133       .  S
Mg803       O811   2.137       .  S
Mg803       O804   2.291       .  S
Mg803       O805   2.294       .  S
Mg803       O832   2.238       .  S
O805        C809   1.271   1_545  A
O806       Mg813   2.318       .  S
O807        C826   1.272       .  A
O808        C828   1.279       .  A
O808       Mg824   2.335       .  S
O810       Mg824   2.133   1_655  S
O810        C821   1.237       .  S
O811       Mg830   2.133   1_545  S
O812       Mg824   2.307       .  S
Mg813       O829   2.234       .  S
O814       Mg830   2.273       .  S
H815        C820   1.081       .  S
O816       Mg824   2.131       .  S
O816        C819   1.239       .  S
H817        C819   1.081       .  S
H818        C821   1.081       .  S
O823       Mg830   2.309   1_455  S
C826       C1080   1.475       .  S
C826        O831   1.278   1_565  A
O827        C828   1.275       .  A
C828       C1192   1.480       .  S
O833       Mg835   2.132   1_655  S
O833       Mg841   2.141       .  S
O833        C868   1.240       .  S
C834        H873   1.081       .  S
C834        O847   1.237       .  S
C834        O871   1.270       .  A
Mg835       O864   2.138       .  S
Mg835       O879   2.317       .  S
Mg835       O875   2.276       .  S
Mg835       O846   2.308       .  S
O836       Mg878   2.138       .  S
O836       Mg861   2.141       .  S
O836        C857   1.240       .  S
O837        C868   1.273       .  A
O837       Mg861   2.304       .  S
C838        C936   1.472       .  S
C838        O840   1.269       .  A
C838        O852   1.278       .  A
O839        C867   1.271   1_655  A
O839       Mg841   2.296       .  S
O840       Mg872   2.229       .  S
Mg841       O847   2.126       .  S
Mg841       O855   2.257       .  S
Mg841       O843   2.292       .  S
C842       C1256   1.473       .  S
C842        O880   1.274   1_655  A
C842        O848   1.273       .  A
O843        C850   1.273       .  A
H844        C857   1.081       .  S
C845        H870   1.080       .  S
C845        O859   1.237       .  S
C845        O860   1.271       .  A
O846        C869   1.273       .  A
O847       Mg861   2.138       .  S
O848       Mg878   2.290       .  S
C849        C907   1.477       .  S
C849        O862   1.271       .  A
C849        O854   1.280       .  A
C850        C888   1.472       .  S
C850        O877   1.275       .  A
Mg851       O858   2.150       .  S
Mg851       O859   2.141       .  S
Mg851       O852   2.342       .  S
Mg851       O853   2.307   1_455  S
Mg851       O880   2.279       .  S
O853        C857   1.274       .  A
O854       Mg861   2.341       .  S
O855        C874   1.271       .  A
O856        C876   1.275       .  A
O856       Mg872   2.307       .  S
O858       Mg872   2.136       .  S
O858        C869   1.239       .  S
O859       Mg878   2.128   1_455  S
O860       Mg872   2.301       .  S
Mg861       O877   2.277       .  S
O862       Mg878   2.252       .  S
H863        C868   1.081       .  S
O864       Mg872   2.119       .  S
O864        C867   1.238       .  S
H865        C867   1.081       .  S
H866        C869   1.081       .  S
O871       Mg878   2.295       .  S
C874       C1208   1.473       .  S
C874        O879   1.276   1_655  A
O875        C876   1.273       .  A
C876        C952   1.477       .  S
C881        C886   1.387       .  A
C881        C882   1.404       .  A
C881        S887   1.707       .  A
C882        C883   1.403       .  A
C882        H893   1.083       .  S
C883        C892   1.373       .  A
C883        C884   1.388       .  A
C884        C885   1.398       .  A
C884        S890   1.699       .  A
C885        C886   1.398       .  A
C885        H894   1.083       .  S
C886        C889   1.369       .  A
S887        C888   1.726       .  A
C888        C889   1.385       .  A
C889        H895   1.083       .  S
S890        C891   1.719       .  A
C891        C892   1.385       .  A
C892        H896   1.083       .  S
C897        C902   1.386       .  A
C897        C898   1.403       .  A
C897        S903   1.704       .  A
C898        C899   1.403       .  A
C898        H909   1.083       .  S
C899        C908   1.375       .  A
C899        C900   1.387       .  A
C900        C901   1.403       .  A
C900        S906   1.705       .  A
C901        C902   1.403       .  A
C901        H910   1.083       .  S
C902        C905   1.374       .  A
S903        C904   1.728       .  A
C904        C905   1.389       .  A
C905        H911   1.081       .  S
S906        C907   1.726       .  A
C907        C908   1.388       .  A
C908        H912   1.083       .  S
C913        C918   1.388       .  A
C913        C914   1.395       .  A
C913        S919   1.703       .  A
C914        C915   1.398       .  A
C914        H925   1.083       .  S
C915        C924   1.361       .  A
C915        C916   1.387       .  A
C916        C917   1.401       .  A
C916        S922   1.710       .  A
C917        C918   1.404       .  A
C917        H926   1.083       .  S
C918        C921   1.367       .  A
S919        C920   1.716       .  A
C920        C921   1.384       .  A
S922        C923   1.723       .  A
C923        C924   1.384       .  A
C924        H928   1.083       .  S
C929        C934   1.387       .  A
C929        C930   1.394       .  A
C929        S935   1.695       .  A
C930        C931   1.395       .  A
C930        H941   1.083       .  S
C931        C940   1.363       .  A
C931        C932   1.387       .  A
C932        C933   1.407       .  A
C932        S938   1.714       .  A
C933        C934   1.408       .  A
C933        H942   1.083       .  S
C934        C937   1.378       .  A
S935        C936   1.722       .  A
C936        C937   1.390       .  A
C937        H943   1.083       .  S
S938        C939   1.725       .  A
C939        C940   1.379       .  A
C940        H944   1.084       .  S
C945        C950   1.387       .  A
C945        C946   1.402       .  A
C945        S951   1.706       .  A
C946        C947   1.402       .  A
C946        H957   1.083       .  S
C947        C956   1.371       .  A
C947        C948   1.387       .  A
C948        C949   1.403       .  A
C948        S954   1.707       .  A
C949        C950   1.404       .  A
C949        H958   1.083       .  S
C950        C953   1.374       .  A
S951        C952   1.724       .  A
C952        C953   1.389       .  A
C953        H959   1.083       .  S
S954        C955   1.726       .  A
C955        C956   1.387       .  A
C956        H960   1.082       .  S
C961        C966   1.387       .  A
C961        C962   1.405       .  A
C961        S967   1.709       .  A
C962        C963   1.405       .  A
C962        H973   1.082       .  S
C963        C972   1.375       .  A
C963        C964   1.387       .  A
C964        C965   1.396       .  A
C964        S970   1.697       .  A
C965        C966   1.397       .  A
C965        H974   1.083       .  S
C966        C969   1.366       .  A
S967        C968   1.722       .  A
C968        C969   1.381       .  A
C969        H975   1.083       .  S
S970        C971   1.722       .  A
C971        C972   1.388       .  A
C972        H976   1.083       .  S
C977        C982   1.387       .  A
C977        C978   1.398       .  A
C977        S983   1.702       .  A
C978        C979   1.399       .  A
C978        H989   1.083       .  S
C979        C988   1.367       .  A
C979        C980   1.387       .  A
C980        C981   1.406       .  A
C980        S986   1.712       .  A
C981        C982   1.406       .  A
C981        H990   1.083       .  S
C982        C985   1.376       .  A
S983        C984   1.723       .  A
C984        C985   1.389       .  A
C985        H991   1.083       .  S
S986        C987   1.723       .  A
C987        C988   1.383       .  A
C988        H992   1.084       .  S
C993        C998   1.387       .  A
C993        C994   1.397       .  A
C993        S999   1.703       .  A
C994        C995   1.399       .  A
C994       H1005   1.083       .  S
C995       C1004   1.365       .  A
C995        C996   1.386       .  A
C996        C997   1.406       .  A
C996       S1002   1.716       .  A
C997        C998   1.408       .  A
C997       H1006   1.083       .  S
C998       C1001   1.375       .  A
S999       C1000   1.721       .  A
C1000      C1001   1.390       .  A
C1001      H1007   1.083       .  S
S1002      C1003   1.726       .  A
C1003      C1004   1.385       .  A
C1004      H1008   1.084       .  S
C1009      C1014   1.386       .  A
C1009      C1010   1.403       .  A
C1009      S1015   1.710       .  A
C1010      C1011   1.404       .  A
C1010      H1021   1.083       .  S
C1011      C1020   1.372       .  A
C1011      C1012   1.387       .  A
C1012      C1013   1.402       .  A
C1012      S1018   1.706       .  A
C1013      C1014   1.403       .  A
C1013      H1022   1.083       .  S
C1014      C1017   1.371       .  A
S1015      C1016   1.724       .  A
C1016      C1017   1.388       .  A
C1017      H1023   1.083       .  S
S1018      C1019   1.725       .  A
C1019      C1020   1.388       .  A
C1020      H1024   1.082       .  S
C1025      C1030   1.387       .  A
C1025      C1026   1.399       .  A
C1025      S1031   1.705       .  A
C1026      C1027   1.401       .  A
C1026      H1037   1.083       .  S
C1027      C1036   1.368       .  A
C1027      C1028   1.386       .  A
C1028      C1029   1.402       .  A
C1028      S1034   1.710       .  A
C1029      C1030   1.404       .  A
C1029      H1038   1.083       .  S
C1030      C1033   1.370       .  A
S1031      C1032   1.719       .  A
C1032      C1033   1.384       .  A
C1033      H1039   1.083       .  S
S1034      C1035   1.724       .  A
C1035      C1036   1.387       .  A
C1036      H1040   1.083       .  S
C1041      C1046   1.387       .  A
C1041      C1042   1.400       .  A
C1041      S1047   1.703       .  A
C1042      C1043   1.400       .  A
C1042      H1053   1.083       .  S
C1043      C1052   1.368       .  A
C1043      C1044   1.387       .  A
C1044      C1045   1.401       .  A
C1044      S1050   1.705       .  A
C1045      C1046   1.401       .  A
C1045      H1054   1.083       .  S
C1046      C1049   1.369       .  A
S1047      C1048   1.719       .  A
C1048      C1049   1.383       .  A
C1049      H1055   1.083       .  S
S1050      C1051   1.724       .  A
C1051      C1052   1.385       .  A
C1052      H1056   1.083       .  S
C1057      C1062   1.387       .  A
C1057      C1058   1.401       .  A
C1057      S1063   1.705       .  A
C1058      C1059   1.401       .  A
C1058      H1069   1.083       .  S
C1059      C1068   1.370       .  A
C1059      C1060   1.387       .  A
C1060      C1061   1.404       .  A
C1060      S1066   1.710       .  A
C1061      C1062   1.405       .  A
C1061      H1070   1.083       .  S
C1062      C1065   1.373       .  A
S1063      C1064   1.725       .  A
C1064      C1065   1.390       .  A
C1065      H1071   1.081       .  S
S1066      C1067   1.726       .  A
C1067      C1068   1.387       .  A
C1068      H1072   1.083       .  S
C1073      C1078   1.387       .  A
C1073      C1074   1.399       .  A
C1073      S1079   1.703       .  A
C1074      C1075   1.400       .  A
C1074      H1085   1.083       .  S
C1075      C1084   1.367       .  A
C1075      C1076   1.387       .  A
C1076      C1077   1.405   1_565  A
C1076      S1082   1.711   1_565  A
C1077      C1078   1.406   1_545  A
C1077      H1086   1.082       .  S
C1078      C1081   1.375       .  A
S1079      C1080   1.723       .  A
C1080      C1081   1.389       .  A
C1081      H1087   1.083   1_565  S
S1082      C1083   1.722   1_545  A
C1083      C1084   1.383       .  A
C1084      H1088   1.083       .  S
C1089      C1094   1.387       .  A
C1089      C1090   1.400       .  A
C1089      S1095   1.705       .  A
C1090      C1091   1.401       .  A
C1090      H1101   1.083       .  S
C1091      C1100   1.368       .  A
C1091      C1092   1.386       .  A
C1092      C1093   1.401   1_565  A
C1092      S1098   1.705   1_565  A
C1093      C1094   1.401   1_545  A
C1093      H1102   1.083       .  S
C1094      C1097   1.369       .  A
S1095      C1096   1.723       .  A
C1096      C1097   1.386       .  A
C1097      H1103   1.083   1_565  S
S1098      C1099   1.721   1_545  A
C1099      C1100   1.384       .  A
C1100      H1104   1.083       .  S
C1105      C1110   1.387       .  A
C1105      C1106   1.403       .  A
C1105      S1111   1.707       .  A
C1106      C1107   1.404       .  A
C1106      H1117   1.083       .  S
C1107      C1116   1.374       .  A
C1107      C1108   1.386       .  A
C1108      C1109   1.404       .  A
C1108      S1114   1.708   1_545  A
C1109      C1110   1.405       .  A
C1109      H1118   1.083   1_545  S
C1110      C1113   1.375       .  A
S1111      C1112   1.725       .  A
C1112      C1113   1.389       .  A
C1113      H1119   1.083       .  S
S1114      C1115   1.726       .  A
C1115      C1116   1.388   1_565  A
C1116      H1120   1.080       .  S
C1121      C1126   1.387       .  A
C1121      C1122   1.406   1_545  A
C1121      S1127   1.712       .  A
C1122      C1123   1.406   1_565  A
C1122      H1133   1.082       .  S
C1123      C1132   1.376       .  A
C1123      C1124   1.387       .  A
C1124      C1125   1.397       .  A
C1124      S1130   1.699       .  A
C1125      C1126   1.397       .  A
C1125      H1134   1.083       .  S
C1126      C1129   1.365       .  A
S1127      C1128   1.723       .  A
C1128      C1129   1.382       .  A
C1129      H1135   1.083       .  S
S1130      C1131   1.722       .  A
C1131      C1132   1.389       .  A
C1132      H1136   1.083   1_545  S
C1137      C1142   1.387       .  A
C1137      C1138   1.401       .  A
C1137      S1143   1.707       .  A
C1138      C1139   1.402       .  A
C1138      H1149   1.083       .  S
C1139      C1148   1.369       .  A
C1139      C1140   1.387       .  A
C1140      C1141   1.400       .  A
C1140      S1146   1.706   1_545  A
C1141      C1142   1.401       .  A
C1141      H1150   1.083   1_545  S
C1142      C1145   1.368       .  A
S1143      C1144   1.720       .  A
C1144      C1145   1.384       .  A
C1145      H1151   1.083       .  S
S1146      C1147   1.723   1_565  A
C1147      C1148   1.387       .  A
C1148      H1152   1.083       .  S
C1153      C1158   1.385       .  A
C1153      C1154   1.403       .  A
C1153      S1159   1.707       .  A
C1154      C1155   1.404       .  A
C1154      H1165   1.083       .  S
C1155      C1164   1.373       .  A
C1155      C1156   1.387       .  A
C1156      C1157   1.399       .  A
C1156      S1162   1.703       .  A
C1157      C1158   1.400       .  A
C1157      H1166   1.083   1_565  S
C1158      C1161   1.368   1_565  A
S1159      C1160   1.727   1_565  A
C1160      C1161   1.389       .  A
C1161      H1167   1.081       .  S
S1162      C1163   1.723       .  A
C1163      C1164   1.389       .  A
C1164      H1168   1.083       .  S
C1169      C1174   1.388       .  A
C1169      C1170   1.396       .  A
C1169      S1175   1.698       .  A
C1170      C1171   1.397       .  A
C1170      H1181   1.083       .  S
C1171      C1180   1.366       .  A
C1171      C1172   1.386   1_455  A
C1172      C1173   1.405       .  A
C1172      S1178   1.710       .  A
C1173      C1174   1.406   1_655  A
C1173      H1182   1.083       .  S
C1174      C1177   1.375       .  A
S1175      C1176   1.719       .  A
C1176      C1177   1.387       .  A
C1177      H1183   1.083   1_455  S
S1178      C1179   1.727       .  A
C1179      C1180   1.383   1_655  A
C1180      H1184   1.083       .  S
C1185      C1190   1.386       .  A
C1185      C1186   1.404       .  A
C1185      S1191   1.709       .  A
C1186      C1187   1.404       .  A
C1186      H1197   1.082       .  S
C1187      C1196   1.374       .  A
C1187      C1188   1.386       .  A
C1188      C1189   1.405       .  A
C1188      S1194   1.710       .  A
C1189      C1190   1.405       .  A
C1189      H1198   1.083       .  S
C1190      C1193   1.375       .  A
S1191      C1192   1.725       .  A
C1192      C1193   1.390       .  A
C1193      H1199   1.083       .  S
S1194      C1195   1.726       .  A
C1195      C1196   1.389       .  A
C1196      H1200   1.082       .  S
C1201      C1206   1.387   1_655  A
C1201      C1202   1.401       .  A
C1201      S1207   1.706       .  A
C1202      C1203   1.402   1_655  A
C1202      H1213   1.083       .  S
C1203      C1212   1.370   1_455  A
C1203      C1204   1.387       .  A
C1204      C1205   1.402       .  A
C1204      S1210   1.705       .  A
C1205      C1206   1.402       .  A
C1205      H1214   1.083       .  S
C1206      C1209   1.371       .  A
S1207      C1208   1.724       .  A
C1208      C1209   1.387   1_655  A
C1209      H1215   1.083       .  S
S1210      C1211   1.722       .  A
C1211      C1212   1.384   1_455  A
C1212      H1216   1.083       .  S
C1217      C1222   1.387   1_655  A
C1217      C1218   1.395       .  A
C1217      S1223   1.698       .  A
C1218      C1219   1.396       .  A
C1218      H1229   1.084       .  S
C1219      C1228   1.362       .  A
C1219      C1220   1.386   1_655  A
C1220      C1221   1.406       .  A
C1220      S1226   1.714       .  A
C1221      C1222   1.407       .  A
C1221      H1230   1.083       .  S
C1222      C1225   1.374       .  A
S1223      C1224   1.721   1_655  A
C1224      C1225   1.389       .  A
C1225      H1231   1.083       .  S
S1226      C1227   1.725   1_455  A
C1227      C1228   1.382       .  A
C1228      H1232   1.084       .  S
C1233      C1238   1.386       .  A
C1233      C1234   1.403       .  A
C1233      S1239   1.710       .  A
C1234      C1235   1.405       .  A
C1234      H1245   1.083       .  S
C1235      C1244   1.373       .  A
C1235      C1236   1.387       .  A
C1236      C1237   1.402       .  A
C1236      S1242   1.709       .  A
C1237      C1238   1.403       .  A
C1237      H1246   1.083       .  S
C1238      C1241   1.371       .  A
S1239      C1240   1.725       .  A
C1240      C1241   1.389       .  A
C1241      H1247   1.082       .  S
S1242      C1243   1.724       .  A
C1243      C1244   1.389       .  A
C1244      H1248   1.083       .  S
C1249      C1254   1.387       .  A
C1249      C1250   1.399       .  A
C1249      S1255   1.703       .  A
C1250      C1251   1.400       .  A
C1250      H1261   1.083       .  S
C1251      C1260   1.367       .  A
C1251      C1252   1.386   1_655  A
C1252      C1253   1.403       .  A
C1252      S1258   1.707       .  A
C1253      C1254   1.403   1_455  A
C1253      H1262   1.083       .  S
C1254      C1257   1.373   1_655  A
S1255      C1256   1.723       .  A
C1256      C1257   1.388   1_655  A
C1257      H1263   1.083       .  S
S1258      C1259   1.723   1_455  A
C1259      C1260   1.384       .  A
C1260      H1264   1.084       .  S
