geometry optimzed in LAMMPS
_audit_creation_date              2020-11-30 
_audit_creation_method            'lammps2cif' 
_symmetry_space_group_name_H-M    'P1' 
_symmetry_Int_Tables_number       1 
_symmetry_cell_setting            triclinic 
loop_ 
_symmetry_equiv_pos_as_xyz 
  x,y,z 
_cell_length_a                    54.458460100566775 
_cell_length_b                    54.428423358340666 
_cell_length_c                    54.44905594389503 
_cell_angle_alpha                 90.00711558445977 
_cell_angle_beta                  90.00079114257879 
_cell_angle_gamma                 90.00522501558639 
loop_ 
_atom_site_label 
_atom_site_type_symbol 
_atom_site_fract_x 
_atom_site_fract_y 
_atom_site_fract_z 
_atom_site_charge 
C1          C  0.70987960  0.74143267  0.70981782     0.05390
C2          C  0.69936691  0.73084292  0.73083036    -0.10760
C3          C  0.70988854  0.70983573  0.74142790     0.02890
C4          C  0.73102587  0.69945428  0.73097214    -0.09280
C5          C  0.74160352  0.70997227  0.70996435     0.05380
C6          C  0.73101547  0.73097328  0.69944200    -0.08700
H7          H  0.68274633  0.73861847  0.73860261     0.10980
H8          H  0.73890368  0.68294625  0.73884135     0.08510
H9          H  0.73888954  0.73884122  0.68292122     0.08360
C10         C  0.24979880  0.71003137  0.21889466     0.05390
C11         C  0.22871444  0.69943369  0.22925663    -0.10760
C12         C  0.21797471  0.70981038  0.25026228     0.02890
C13         C  0.22834943  0.73087951  0.26086934    -0.09280
C14         C  0.24942542  0.74154835  0.25058631     0.05380
C15         C  0.26009926  0.73110399  0.22958305    -0.08700
H16         H  0.22100491  0.68288625  0.22131704     0.10980
H17         H  0.22035400  0.73864476  0.27738157     0.08510
H18         H  0.27667177  0.73904885  0.22188633     0.08360
C19         C  0.74074194  0.25032766  0.71004995     0.05390
C20         C  0.73041696  0.22922366  0.69945176    -0.10760
C21         C  0.70939825  0.21847543  0.70977772     0.02890
C22         C  0.69873196  0.22886958  0.73080100    -0.09280
C23         C  0.70897255  0.24996975  0.74147437     0.05380
C24         C  0.72999851  0.26065459  0.73108141    -0.08700
H25         H  0.73840773  0.22148880  0.68292380     0.10980
H26         H  0.68220377  0.22086032  0.73852866     0.08510
H27         H  0.73766117  0.27722342  0.73902090     0.08360
C28         C  0.24980011  0.21886377  0.71004757     0.05390
C29         C  0.22871384  0.22921006  0.69944662    -0.10760
C30         C  0.21796095  0.25022245  0.70979829     0.02890
C31         C  0.22832705  0.26085923  0.73085576    -0.09280
C32         C  0.24940934  0.25059105  0.74153059     0.05380
C33         C  0.26009317  0.22957863  0.73110627    -0.08700
H34         H  0.22100686  0.22124458  0.68289952     0.10980
H35         H  0.22032597  0.27736796  0.73859954     0.08510
H36         H  0.27666951  0.22189239  0.73905469     0.08360
C37         C  0.21859432  0.70984127  0.70992520     0.05390
C38         C  0.22908333  0.73094755  0.69948704    -0.10760
C39         C  0.25002631  0.74161611  0.71005757     0.02890
C40         C  0.26044728  0.73114437  0.73115907    -0.09280
C41         C  0.25004582  0.71004776  0.74167047     0.05380
C42         C  0.22910082  0.69943887  0.73103812    -0.08700
H43         H  0.22128078  0.73874456  0.68290154     0.10980
H44         H  0.27691427  0.73908871  0.73907462     0.08510
H45         H  0.22131685  0.68286767  0.73885994     0.08360
C46         C  0.70960743  0.21860564  0.25023249     0.05390
C47         C  0.69914755  0.22912058  0.22915970    -0.10760
C48         C  0.70958645  0.25019857  0.21862389     0.02890
C49         C  0.73058937  0.26073396  0.22920495    -0.09280
C50         C  0.74111593  0.25029223  0.25028010     0.05380
C51         C  0.73060811  0.22921394  0.26073857    -0.08700
H52         H  0.68263470  0.22122904  0.22129048     0.10980
H53         H  0.73840109  0.27729028  0.22137727     0.08510
H54         H  0.73843916  0.22139631  0.27730186     0.08360
O55         O  0.50561782  0.45409054  0.12909427    -0.70680
O56         O  0.45391454  0.50594855  0.12912652    -0.71660
O57         O  0.50567613  0.50585084  0.12906633    -0.60280
O58         O  0.45385444  0.45415116  0.12913638    -0.68690
O59         O  0.45363176  0.45390359  0.16997655    -0.68240
O60         O  0.50598759  0.50613352  0.16990709    -0.59500
O61         O  0.45370169  0.50622407  0.16996531    -0.72010
O62         O  0.50591675  0.45385232  0.16993411    -0.70780
Cu63       Cu  0.47976029  0.48000939  0.12772738     1.04560
Cu64       Cu  0.47980651  0.48002892  0.17145739     1.04330
C65         C  0.51389633  0.44585397  0.14938418     0.95520
C66         C  0.44570302  0.51423271  0.14942709     0.94660
C67         C  0.51397967  0.51408678  0.14934579     0.86800
C68         C  0.44561738  0.44590565  0.14943802     0.93070
N69         N  0.30107934  0.30161182  0.12912495    -0.25030
N70         N  0.31236021  0.31262976  0.14766075    -0.32880
C71         C  0.30364320  0.30376853  0.16897884     0.03310
C72         C  0.28606779  0.28637228  0.16373318     0.09340
C73         C  0.28479222  0.28535416  0.13836178    -0.03760
H74         H  0.30969308  0.30962507  0.18697350     0.10010
H75         H  0.27295197  0.27373124  0.12744632     0.11210
Cu76       Cu  0.33915992  0.33934045  0.14432488     0.44170
Cu77       Cu  0.30838597  0.30928566  0.09206709     0.41990
Cu78       Cu  0.35469291  0.35548422  0.08320736     0.43880
N79         N  0.36534485  0.36557797  0.13611061    -0.32410
N80         N  0.37090247  0.37135801  0.11322497    -0.26670
C81         C  0.38829866  0.38877909  0.11316364    -0.02770
C82         C  0.39392120  0.39418565  0.13719028     0.09450
C83         C  0.37914760  0.37925739  0.15140782     0.03250
H84         H  0.39620216  0.39686905  0.09682240     0.10900
H85         H  0.37844029  0.37838384  0.17124423     0.09980
N86         N  0.33714812  0.33837738  0.05463393    -0.33860
N87         N  0.32006146  0.32133959  0.05738904    -0.26040
C88         C  0.31250316  0.31412781  0.03491092    -0.01280
C89         C  0.32555687  0.32735523  0.01753607     0.07330
C90         C  0.34097129  0.34251195  0.03062633     0.05420
H91         H  0.29861145  0.30036248  0.03149597     0.10530
H92         H  0.35401652  0.35560306  0.02332421     0.09360
N93         N  0.30162538  0.65911999  0.12946091    -0.25030
N94         N  0.31270906  0.64787116  0.14797736    -0.32880
C95         C  0.30385336  0.65656183  0.16931220     0.03310
C96         C  0.28639397  0.67408615  0.16410649     0.09340
C97         C  0.28533358  0.67535355  0.13873424    -0.03760
H98         H  0.30973952  0.65050895  0.18729945     0.10010
H99         H  0.27363430  0.68714459  0.12783669     0.11210
Cu100      Cu  0.33945866  0.62109269  0.14459272     0.44170
Cu101      Cu  0.30922547  0.65180273  0.09237102     0.41990
Cu102      Cu  0.35547255  0.60555921  0.08344808     0.43880
N103        N  0.36566580  0.59486896  0.13632068    -0.32410
N104        N  0.37139583  0.58932314  0.11341880    -0.26670
C105        C  0.38876283  0.57187469  0.11330082    -0.02770
C106        C  0.39419210  0.56619801  0.13730808     0.09450
C107        C  0.37932852  0.58100019  0.15157393     0.03250
H108        H  0.39678239  0.56395415  0.09693431     0.10900
H109        H  0.37847180  0.58166481  0.17141053     0.09980
N110        N  0.33826211  0.62302028  0.05489329    -0.33860
N111        N  0.32119968  0.64008093  0.05766086    -0.26040
C112        C  0.31389759  0.64754813  0.03518259    -0.01280
C113        C  0.32708928  0.63446560  0.01779670     0.07330
C114        C  0.34231859  0.61912780  0.03088411     0.05420
H115        H  0.30007762  0.66139603  0.03177101     0.10530
H116        H  0.35540178  0.60607029  0.02357461     0.09360
N117        N  0.65830865  0.30142976  0.12908270    -0.25030
N118        N  0.64726922  0.31271298  0.14760637    -0.32880
C119        C  0.65608354  0.30398443  0.16893643     0.03310
C120        C  0.67347125  0.28639670  0.16372345     0.09340
C121        C  0.67453390  0.28512884  0.13835064    -0.03760
H122        H  0.65019571  0.31003535  0.18692597     0.10010
H123        H  0.68617023  0.27327499  0.12745058     0.11210
Cu124      Cu  0.62057753  0.33952233  0.14426412     0.44170
Cu125      Cu  0.65068338  0.30875858  0.09200020     0.41990
Cu126      Cu  0.60449796  0.35509639  0.08318487     0.43880
N127        N  0.59434030  0.36570585  0.13606977    -0.32410
N128        N  0.58858384  0.37128049  0.11318437    -0.26670
C129        C  0.57114930  0.38865946  0.11311585    -0.02770
C130        C  0.56570901  0.39425326  0.13714066     0.09450
C131        C  0.58063119  0.37948014  0.15136457     0.03250
H132        H  0.56307010  0.39656455  0.09677378     0.10900
H133        H  0.58147622  0.37874964  0.17119899     0.09980
N134        N  0.62159562  0.33758318  0.05459833    -0.33860
N135        N  0.63862757  0.32048524  0.05732027    -0.26040
C136        C  0.64581208  0.31295955  0.03482166    -0.01280
C137        C  0.63257515  0.32604398  0.01747386     0.07330
C138        C  0.61744184  0.34144168  0.03060237     0.05420
H139        H  0.65956927  0.29905824  0.03137094     0.10530
H140        H  0.60434315  0.35450251  0.02333034     0.09360
N141        N  0.65877200  0.65800748  0.12886492    -0.25030
N142        N  0.64754985  0.64689771  0.14737964    -0.32880
C143        C  0.65623061  0.65574254  0.16871467     0.03310
C144        C  0.67372316  0.67322463  0.16351033     0.09340
C145        C  0.67498655  0.67431461  0.13814150    -0.03760
H146        H  0.65018534  0.64983569  0.18670166     0.10010
H147        H  0.68675454  0.68604490  0.12725087     0.11210
Cu148      Cu  0.62081890  0.62015877  0.14401371     0.44170
Cu149      Cu  0.65141720  0.65041790  0.09179540     0.41990
Cu150      Cu  0.60516599  0.60412446  0.08292793     0.43880
N151        N  0.59460546  0.59397720  0.13582799    -0.32410
N152        N  0.58899615  0.58821949  0.11295031    -0.26670
C153        C  0.57153577  0.57086076  0.11291282    -0.02770
C154        C  0.56593517  0.56548303  0.13695177     0.09450
C155        C  0.58078072  0.58035510  0.15114752     0.03250
H156        H  0.56355675  0.56282172  0.09659033     0.10900
H157        H  0.58150256  0.58125136  0.17098019     0.09980
N158        N  0.62258271  0.62137571  0.05436310    -0.33860
N159        N  0.63963677  0.63844755  0.05711801    -0.26040
C160        C  0.64706496  0.64578295  0.03463804    -0.01280
C161        C  0.63396189  0.63260091  0.01726282     0.07330
C162        C  0.61865189  0.61734226  0.03035377     0.05420
H163        H  0.66089121  0.65961474  0.03122184     0.10530
H164        H  0.60559486  0.60426743  0.02305305     0.09360
O165        O  0.45302421  0.45433559  0.79022860    -0.70680
O166        O  0.50589043  0.50604421  0.79013614    -0.71660
O167        O  0.50530509  0.45372959  0.79017611    -0.60280
O168        O  0.45361769  0.50662227  0.79020976    -0.68690
O169        O  0.45393469  0.50637730  0.83105037    -0.68240
O170        O  0.50509038  0.45402334  0.83101583    -0.59500
O171        O  0.50568623  0.50581438  0.83097617    -0.72010
O172        O  0.45333371  0.45461328  0.83106840    -0.70780
Cu173      Cu  0.47946070  0.48018124  0.78867589     1.04560
Cu174      Cu  0.47951593  0.48020745  0.83240619     1.04330
C175        C  0.44495440  0.44645350  0.81078649     0.95520
C176        C  0.51399219  0.51397412  0.81066559     0.94660
C177        C  0.51322141  0.44565421  0.81072062     0.86800
C178        C  0.44573994  0.51470520  0.81076660     0.93070
N179        N  0.29981073  0.30275785  0.83103177    -0.25030
N180        N  0.31094283  0.31395173  0.81251118    -0.32880
C181        C  0.30230465  0.30504556  0.79118035     0.03310
C182        C  0.28493999  0.28743319  0.79639219     0.09340
C183        C  0.28370382  0.28633745  0.82176319    -0.03760
H184        H  0.30831845  0.31097224  0.77318956     0.10010
H185        H  0.27205030  0.27450093  0.83266187     0.11210
Cu186      Cu  0.33758909  0.34080837  0.81586670     0.44170
Cu187      Cu  0.30719834  0.31030649  0.86811071     0.41990
Cu188      Cu  0.35332127  0.35669727  0.87696628     0.43880
N189        N  0.36383170  0.36698299  0.82408642    -0.32410
N190        N  0.36945514  0.37267891  0.84697627    -0.26670
C191        C  0.38696665  0.38998489  0.84705937    -0.02770
C192        C  0.39259324  0.39540319  0.82303768     0.09450
C193        C  0.37770668  0.38060049  0.80880237     0.03250
H194        H  0.39498774  0.39793720  0.86340395     0.10900
H195        H  0.37701480  0.37972615  0.78896780     0.09980
N196        N  0.33608666  0.33929482  0.90553779    -0.33860
N197        N  0.31907697  0.32217763  0.90279580    -0.26040
C198        C  0.31181774  0.31469601  0.92528424    -0.01280
C199        C  0.32498667  0.32783272  0.94264712     0.07330
C200        C  0.34015829  0.34321347  0.92954136     0.05420
H201        H  0.29808183  0.30077831  0.92871451     0.10530
H202        H  0.35323703  0.35627472  0.93682776     0.09360
N203        N  0.30187238  0.65954590  0.83128443    -0.25030
N204        N  0.31301650  0.64835869  0.81276735    -0.32880
C205        C  0.30410641  0.65696919  0.79143262     0.03310
C206        C  0.28653871  0.67437489  0.79663726     0.09340
C207        C  0.28547627  0.67566751  0.82200785    -0.03760
H208        H  0.31001429  0.65092368  0.77344763     0.10010
H209        H  0.27369187  0.68738168  0.83290006     0.11210
Cu210      Cu  0.33984731  0.62172022  0.81612636     0.44170
Cu211      Cu  0.30950432  0.65222335  0.86835962     0.41990
Cu212      Cu  0.35589855  0.60606734  0.87720281     0.43880
N213        N  0.36605653  0.59553142  0.82429674    -0.32410
N214        N  0.37182009  0.58992216  0.84717197    -0.26670
C215        C  0.38916927  0.57245617  0.84719957    -0.02770
C216        C  0.39453873  0.56685145  0.82315889     0.09450
C217        C  0.37966631  0.58169955  0.80897066     0.03250
H218        H  0.39719887  0.56446143  0.86352226     0.10900
H219        H  0.37875033  0.58240652  0.78913835     0.09980
N220        N  0.33858469  0.62340759  0.90578036    -0.33860
N221        N  0.32147670  0.64042725  0.90303835    -0.26040
C222        C  0.31408610  0.64777965  0.92552620    -0.01280
C223        C  0.32726563  0.63466710  0.94289368     0.07330
C224        C  0.34258083  0.61942889  0.92978527     0.05420
H225        H  0.30019916  0.66155697  0.92895638     0.10530
H226        H  0.35566713  0.60636710  0.93707752     0.09360
N227        N  0.65683860  0.30045169  0.83093642    -0.25030
N228        N  0.64564339  0.31158778  0.81242132    -0.32880
C229        C  0.65452445  0.30293295  0.79108625     0.03310
C230        C  0.67212115  0.28555203  0.79629424     0.09340
C231        C  0.67323396  0.28432599  0.82166408    -0.03760
H232        H  0.64859407  0.30894554  0.77309981     0.10010
H233        H  0.68506640  0.27266705  0.83256017     0.11210
Cu234      Cu  0.61881776  0.33825928  0.81581175     0.44170
Cu235      Cu  0.64932053  0.30786359  0.86801109     0.41990
Cu236      Cu  0.60298140  0.35403952  0.87694930     0.43880
N237        N  0.59267358  0.36452469  0.82405314    -0.32410
N238        N  0.58699458  0.37016917  0.84694365    -0.26670
C239        C  0.56970087  0.38769169  0.84701640    -0.02770
C240        C  0.56427354  0.39330364  0.82299143     0.09450
C241        C  0.57905857  0.37839514  0.80876459     0.03250
H242        H  0.56175789  0.39573210  0.86336150     0.10900
H243        H  0.57992120  0.37768407  0.78892972     0.09980
N244        N  0.62041446  0.33676689  0.90549598    -0.33860
N245        N  0.63750911  0.31974068  0.90271117    -0.26040
C246        C  0.64502060  0.31245321  0.92517703    -0.01280
C247        C  0.63193389  0.32561448  0.94257817     0.07330
C248        C  0.61654665  0.34081504  0.92951175     0.05420
H249        H  0.65893301  0.29869295  0.92856907     0.10530
H250        H  0.60350587  0.35390441  0.93683961     0.09360
N251        N  0.65893581  0.65794255  0.83076585    -0.25030
N252        N  0.64773988  0.64683713  0.81222912    -0.32880
C253        C  0.65641465  0.65574358  0.79091081     0.03310
C254        C  0.67386914  0.67326356  0.79615513     0.09340
C255        C  0.67512160  0.67430234  0.82152778    -0.03760
H256        H  0.65039033  0.64986164  0.77291595     0.10010
H257        H  0.68685302  0.68603439  0.83244378     0.11210
Cu258      Cu  0.62101883  0.62003116  0.81555752     0.44170
Cu259      Cu  0.65158884  0.65032598  0.86783514     0.41990
Cu260      Cu  0.60538235  0.60405136  0.87667845     0.43880
N261        N  0.59479513  0.59382335  0.82379435    -0.32410
N262        N  0.58921091  0.58810778  0.84668936    -0.26670
C263        C  0.57175331  0.57075036  0.84678672    -0.02770
C264        C  0.56611416  0.56531110  0.82277358     0.09450
C265        C  0.58094252  0.58016036  0.80852432     0.03250
H266        H  0.56379401  0.56275027  0.86314529     0.10900
H267        H  0.58162920  0.58101446  0.78868643     0.09980
N268        N  0.62274789  0.62130596  0.90525962    -0.33860
N269        N  0.63979958  0.63838041  0.90251977    -0.26040
C270        C  0.64718866  0.64573643  0.92500888    -0.01280
C271        C  0.63405909  0.63256235  0.94237022     0.07330
C272        C  0.61877755  0.61729014  0.92926210     0.05420
H273        H  0.66099752  0.65958034  0.92844073     0.10530
H274        H  0.60570339  0.60421899  0.93654854     0.09360
O275        O  0.50594399  0.16991237  0.45389909    -0.70680
O276        O  0.45369698  0.16994373  0.50624556    -0.71660
O277        O  0.50598685  0.16988593  0.50617360    -0.60280
O278        O  0.45364911  0.16996078  0.45393062    -0.68690
O279        O  0.45386560  0.12910637  0.45417386    -0.68240
O280        O  0.50567250  0.12903076  0.50588916    -0.59500
O281        O  0.45390660  0.12909049  0.50596569    -0.72010
O282        O  0.50563820  0.12905822  0.45413659    -0.70780
Cu283      Cu  0.47981627  0.17143783  0.48006218     1.04560
Cu284      Cu  0.47976488  0.12769313  0.48003975     1.04330
C285        C  0.51392552  0.14935417  0.44590455     0.95520
C286        C  0.44569664  0.14939701  0.51425271     0.94660
C287        C  0.51397157  0.14931719  0.51413181     0.86800
C288        C  0.44563463  0.14941666  0.44592688     0.93070
N289        N  0.30111307  0.12916402  0.30159876    -0.25030
N290        N  0.31238563  0.14770396  0.31262117    -0.32880
C291        C  0.30366334  0.16903311  0.30376558     0.03310
C292        C  0.28609300  0.16377589  0.28636870     0.09340
C293        C  0.28482705  0.13839793  0.28534482    -0.03760
H294        H  0.30969821  0.18701861  0.30961824     0.10010
H295        H  0.27299575  0.12747521  0.27372189     0.11210
Cu296      Cu  0.33918615  0.14436388  0.33933557     0.44170
Cu297      Cu  0.30842130  0.09210376  0.30925415     0.41990
Cu298      Cu  0.35472133  0.08324036  0.35545298     0.43880
N299        N  0.36537388  0.13614337  0.36557637    -0.32410
N300        N  0.37092789  0.11325193  0.37134235    -0.26670
C301        C  0.38832203  0.11317253  0.38876412    -0.02770
C302        C  0.39394730  0.13720457  0.39418577     0.09450
C303        C  0.37917781  0.15144463  0.37926654     0.03250
H304        H  0.39621207  0.09683277  0.39683361     0.10900
H305        H  0.37847479  0.17125912  0.37840718     0.09980
N306        N  0.33718622  0.05467187  0.33833456    -0.33860
N307        N  0.32010250  0.05742916  0.32129647    -0.26040
C308        C  0.31255471  0.03494875  0.31407965    -0.01280
C309        C  0.32560520  0.01757058  0.32729722     0.07330
C310        C  0.34101003  0.03066008  0.34245659     0.05420
H311        H  0.29865521  0.03152980  0.30030070     0.10530
H312        H  0.35406252  0.02334644  0.35555437     0.09360
N313        N  0.65838988  0.12905352  0.30152320    -0.25030
N314        N  0.64736001  0.14757927  0.31281389    -0.32880
C315        C  0.65617069  0.16892149  0.30408328     0.03310
C316        C  0.67354601  0.16370049  0.28648638     0.09340
C317        C  0.67460451  0.13832185  0.28521544    -0.03760
H318        H  0.65029255  0.18690207  0.31012823     0.10010
H319        H  0.68622676  0.12741683  0.27335286     0.11210
Cu320      Cu  0.62067380  0.14422937  0.33963018     0.44170
Cu321      Cu  0.65076442  0.09196995  0.30883892     0.41990
Cu322      Cu  0.60458540  0.08314681  0.35519128     0.43880
N323        N  0.59442787  0.13603550  0.36581121    -0.32410
N324        N  0.58867030  0.11314697  0.37138057    -0.26670
C325        C  0.57122535  0.11306959  0.38875183    -0.02770
C326        C  0.56578199  0.13710417  0.39434348     0.09450
C327        C  0.58071074  0.15134196  0.37957957     0.03250
H328        H  0.56315029  0.09673574  0.39663813     0.10900
H329        H  0.58155143  0.17115366  0.37884886     0.09980
N330        N  0.62167058  0.05456676  0.33765557    -0.33860
N331        N  0.63869737  0.05729457  0.32055343    -0.26040
C332        C  0.64586406  0.03479607  0.31301051    -0.01280
C333        C  0.63262747  0.01744148  0.32608162     0.07330
C334        C  0.61750914  0.03056455  0.34149290     0.05420
H335        H  0.65962202  0.03134612  0.29908905     0.10530
H336        H  0.60440311  0.02327845  0.35455623     0.09360
N337        N  0.30164055  0.12940972  0.65916691    -0.25030
N338        N  0.31273276  0.14792958  0.64792872    -0.32880
C339        C  0.30388097  0.16927653  0.65662020     0.03310
C340        C  0.28641439  0.16406173  0.67413506     0.09340
C341        C  0.28534617  0.13868240  0.67539504    -0.03760
H342        H  0.30976497  0.18725349  0.65058030     0.10010
H343        H  0.27364087  0.12778000  0.68717295     0.11210
Cu344      Cu  0.33948649  0.14454125  0.62115309     0.44170
Cu345      Cu  0.30922487  0.09231717  0.65184148     0.41990
Cu346      Cu  0.35548138  0.08339884  0.60559670     0.43880
N347        N  0.36569084  0.13627639  0.59492005    -0.32410
N348        N  0.37141272  0.11337260  0.58936772    -0.26670
C349        C  0.38877440  0.11324976  0.57191229    -0.02770
C350        C  0.39420644  0.13726755  0.56623988     0.09450
C351        C  0.37935240  0.15154417  0.58104964     0.03250
H352        H  0.39677547  0.09689165  0.56399333     0.10900
H353        H  0.37850027  0.17135850  0.58171630     0.09980
N354        N  0.33825291  0.05484599  0.62304235    -0.33860
N355        N  0.32118841  0.05761243  0.64010088    -0.26040
C356        C  0.31387525  0.03512976  0.64754883    -0.01280
C357        C  0.32705572  0.01774275  0.63446224     0.07330
C358        C  0.34229284  0.03083263  0.61913906     0.05420
H359        H  0.30003953  0.03171196  0.66140011     0.10530
H360        H  0.35538018  0.02351515  0.60607172     0.09360
N361        N  0.65869536  0.12886244  0.65812138    -0.25030
N362        N  0.64747426  0.14737958  0.64701352    -0.32880
C363        C  0.65616072  0.16872722  0.65584904     0.03310
C364        C  0.67365645  0.16351701  0.67332305     0.09340
C365        C  0.67491454  0.13814154  0.67441723    -0.03760
H366        H  0.65012673  0.18670517  0.64994594     0.10010
H367        H  0.68668461  0.12724603  0.68614094     0.11210
Cu368      Cu  0.62074079  0.14400997  0.62027704     0.44170
Cu369      Cu  0.65134273  0.09178718  0.65054163     0.41990
Cu370      Cu  0.60509038  0.08292716  0.60424810     0.43880
N371        N  0.59453203  0.13582688  0.59408585    -0.32410
N372        N  0.58892600  0.11294540  0.58833336    -0.26670
C373        C  0.57147591  0.11289477  0.57096516    -0.02770
C374        C  0.56588006  0.13694146  0.56557733     0.09450
C375        C  0.58071595  0.15115520  0.58045123     0.03250
H376        H  0.56351451  0.09657799  0.56293615     0.10900
H377        H  0.58143865  0.17096511  0.58133742     0.09980
N378        N  0.62250500  0.05436327  0.62149211    -0.33860
N379        N  0.63955898  0.05711399  0.63856288    -0.26040
C380        C  0.64698383  0.03462805  0.64588260    -0.01280
C381        C  0.63388573  0.01725434  0.63269853     0.07330
C382        C  0.61857889  0.03035136  0.61745160     0.05420
H383        H  0.66082366  0.03120179  0.65972082     0.10530
H384        H  0.60551647  0.02304531  0.60436548     0.09360
O385        O  0.50567388  0.83095561  0.50576817    -0.70680
O386        O  0.45333036  0.83105295  0.45456643    -0.71660
O387        O  0.45391319  0.83103122  0.50632108    -0.60280
O388        O  0.50508909  0.83099468  0.45398331    -0.68690
O389        O  0.50529734  0.79014038  0.45368824    -0.68240
O390        O  0.45359105  0.79017625  0.50656351    -0.59500
O391        O  0.45301389  0.79019858  0.45428450    -0.72010
O392        O  0.50587458  0.79010131  0.50599767    -0.70780
Cu393      Cu  0.47950689  0.83238686  0.48016093     1.04560
Cu394      Cu  0.47944574  0.78864169  0.48013261     1.04330
C395        C  0.51397672  0.81063823  0.51392955     0.95520
C396        C  0.44495232  0.81076580  0.44640056     0.94660
C397        C  0.44571106  0.81074026  0.51464420     0.86800
C398        C  0.51321417  0.81069181  0.44561035     0.93070
N399        N  0.29987040  0.83107032  0.30267833    -0.25030
N400        N  0.31099981  0.81254559  0.31386795    -0.32880
C401        C  0.30235330  0.79120414  0.30497126     0.03310
C402        C  0.28498548  0.79642673  0.28736954     0.09340
C403        C  0.28375667  0.82180351  0.28627027    -0.03760
H404        H  0.30835438  0.77322123  0.31089212     0.10010
H405        H  0.27210174  0.83270935  0.27444157     0.11210
Cu406      Cu  0.33764853  0.81590192  0.34071529     0.44170
Cu407      Cu  0.30726308  0.86814785  0.31021879     0.41990
Cu408      Cu  0.35339747  0.87699521  0.35660692     0.43880
N409        N  0.36388952  0.82410764  0.36689274    -0.32410
N410        N  0.36951962  0.84699743  0.37258934    -0.26670
C411        C  0.38702470  0.84707918  0.38990153    -0.02770
C412        C  0.39263647  0.82304437  0.39531952     0.09450
C413        C  0.37775108  0.80880364  0.38051364     0.03250
H414        H  0.39503747  0.86341111  0.39784838     0.10900
H415        H  0.37704927  0.78899246  0.37964188     0.09980
N416        N  0.33616124  0.90556502  0.33920750    -0.33860
N417        N  0.31914958  0.90282324  0.32209393    -0.26040
C418        C  0.31189168  0.92531407  0.31462186    -0.01280
C419        C  0.32505574  0.94267907  0.32775323     0.07330
C420        C  0.34022727  0.92957303  0.34312516     0.05420
H421        H  0.29814087  0.92874929  0.30069752     0.10530
H422        H  0.35331295  0.93686989  0.35619325     0.09360
N423        N  0.65679019  0.83090349  0.30036172    -0.25030
N424        N  0.64558670  0.81238299  0.31148411    -0.32880
C425        C  0.65447184  0.79103769  0.30283212     0.03310
C426        C  0.67208059  0.79625909  0.28546707     0.09340
C427        C  0.67319576  0.82163557  0.28424761    -0.03760
H428        H  0.64854718  0.77306025  0.30883123     0.10010
H429        H  0.68503663  0.83253877  0.27260683     0.11210
Cu430      Cu  0.61875112  0.81577132  0.33814778     0.44170
Cu431      Cu  0.64928417  0.86797909  0.30777753     0.41990
Cu432      Cu  0.60293312  0.87690819  0.35394338     0.43880
N433        N  0.59261002  0.82400866  0.36442192    -0.32410
N434        N  0.58693986  0.84690218  0.37006875    -0.26670
C435        C  0.56965495  0.84698412  0.38760098    -0.02770
C436        C  0.56422586  0.82295047  0.39321522     0.09450
C437        C  0.57899861  0.80870883  0.37830011     0.03250
H438        H  0.56173336  0.86332292  0.39563851     0.10900
H439        H  0.57985776  0.78889604  0.37759312     0.09980
N440        N  0.62038395  0.90545467  0.33669248    -0.33860
N441        N  0.63748322  0.90267256  0.31967105    -0.26040
C442        C  0.64500827  0.92514299  0.31240712    -0.01280
C443        C  0.63193126  0.94254351  0.32557291     0.07330
C444        C  0.61653310  0.92947372  0.34075449     0.05420
H445        H  0.65893972  0.92854231  0.29864729     0.10530
H446        H  0.60348728  0.93680818  0.35385359     0.09360
N447        N  0.30178677  0.83121925  0.65944822    -0.25030
N448        N  0.31292176  0.81269844  0.64825612    -0.32880
C449        C  0.30401795  0.79135273  0.65687552     0.03310
C450        C  0.28646415  0.79656807  0.67429190     0.09340
C451        C  0.28540417  0.82194467  0.67558136    -0.03760
H452        H  0.30991699  0.77337562  0.65083994     0.10010
H453        H  0.27363467  0.83284364  0.68730352     0.11210
Cu454      Cu  0.33974542  0.81606183  0.62160581     0.44170
Cu455      Cu  0.30941181  0.86829630  0.65213198     0.41990
Cu456      Cu  0.35579089  0.87714656  0.60596170     0.43880
N457        N  0.36596148  0.82423835  0.59541709    -0.32410
N458        N  0.37171914  0.84711862  0.58981340    -0.26670
C459        C  0.38907845  0.84716165  0.57235525    -0.02770
C460        C  0.39445910  0.82311379  0.56675167     0.09450
C461        C  0.37958467  0.80890569  0.58159023     0.03250
H462        H  0.39709877  0.86347935  0.56438030     0.10900
H463        H  0.37868027  0.78909575  0.58229682     0.09980
N464        N  0.33848794  0.90571956  0.62331758    -0.33860
N465        N  0.32138655  0.90297261  0.64034282    -0.26040
C466        C  0.31401046  0.92546132  0.64770787    -0.01280
C467        C  0.32718641  0.94283501  0.63460382     0.07330
C468        C  0.34248785  0.92973049  0.61935424     0.05420
H469        H  0.30012278  0.92889182  0.66150498     0.10530
H470        H  0.35557957  0.93703566  0.60628741     0.09360
N471        N  0.65889606  0.83075090  0.65791791    -0.25030
N472        N  0.64771386  0.81220821  0.64680644    -0.32880
C473        C  0.65639610  0.79088033  0.65570803     0.03310
C474        C  0.67384157  0.79613955  0.67323122     0.09340
C475        C  0.67507980  0.82151884  0.67427630    -0.03760
H476        H  0.65039043  0.77289362  0.64982929     0.10010
H477        H  0.68679800  0.83244423  0.68601071     0.11210
Cu478      Cu  0.62099593  0.81553990  0.61999613     0.44170
Cu479      Cu  0.65153771  0.86781901  0.65031752     0.41990
Cu480      Cu  0.60533763  0.87666787  0.60403578     0.43880
N481        N  0.59476970  0.82377484  0.59378559    -0.32410
N482        N  0.58917997  0.84667247  0.58807942    -0.26670
C483        C  0.57172325  0.84677521  0.57072160    -0.02770
C484        C  0.56609168  0.82275203  0.56527369     0.09450
C485        C  0.58092232  0.80849127  0.58011667     0.03250
H486        H  0.56376909  0.86312635  0.56273842     0.10900
H487        H  0.58161290  0.78867584  0.58096250     0.09980
N488        N  0.62269109  0.90524503  0.62131181    -0.33860
N489        N  0.63973840  0.90249905  0.63838763    -0.26040
C490        C  0.64711556  0.92498785  0.64575683    -0.01280
C491        C  0.63399077  0.94235695  0.63259773     0.07330
C492        C  0.61872018  0.92925372  0.61731646     0.05420
H493        H  0.66093052  0.92841905  0.65961731     0.10530
H494        H  0.60563974  0.93655601  0.60424012     0.09360
C495        C  0.74076922  0.71003530  0.25029756     0.05390
C496        C  0.73045719  0.69941556  0.22920012    -0.10760
C497        C  0.70943233  0.70972842  0.21844978     0.02890
C498        C  0.69875095  0.73075337  0.22883129    -0.09280
C499        C  0.70897988  0.74144487  0.24992279     0.05380
C500        C  0.73000832  0.73106664  0.26060879    -0.08700
H501        H  0.73845648  0.68289563  0.22147992     0.10980
H502        H  0.68221803  0.73847074  0.22082022     0.08510
H503        H  0.73766520  0.73902548  0.27718189     0.08360
O504        O  0.16947024  0.45358593  0.50591411    -0.70680
O505        O  0.16947189  0.50592521  0.45364792    -0.71660
O506        O  0.16951901  0.50590000  0.50595126    -0.60280
O507        O  0.16946136  0.45363502  0.45363961    -0.68690
O508        O  0.12862742  0.45391088  0.45391594    -0.68240
O509        O  0.12868642  0.50567370  0.50572484    -0.59500
O510        O  0.12863913  0.50568094  0.45394775    -0.72010
O511        O  0.12863736  0.45388461  0.50567099    -0.70780
Cu512      Cu  0.17099200  0.47976332  0.47978950     1.04560
Cu513      Cu  0.12726930  0.47979041  0.47981743     1.04330
C514        C  0.14892066  0.44559491  0.51389863     0.95520
C515        C  0.14892308  0.51391645  0.44566426     0.94660
C516        C  0.14899179  0.51390593  0.51397120     0.86800
C517        C  0.14891266  0.44565496  0.44565090     0.93070
N518        N  0.12855318  0.30127634  0.30120977    -0.25030
N519        N  0.14708074  0.31242990  0.31237189    -0.32880
C520        C  0.16840333  0.30364878  0.30360168     0.03310
C521        C  0.16318807  0.28616079  0.28611229     0.09340
C522        C  0.13781543  0.28500412  0.28494290    -0.03760
H523        H  0.18639624  0.30961442  0.30957645     0.10010
H524        H  0.12691905  0.27326560  0.27320009     0.11210
Cu525      Cu  0.14376490  0.33917968  0.33912242     0.44170
Cu526      Cu  0.09146959  0.30877542  0.30869319     0.41990
Cu527      Cu  0.08270902  0.35503527  0.35496028     0.43880
N528        N  0.13559139  0.36538817  0.36533432    -0.32410
N529        N  0.11270904  0.37106496  0.37100466    -0.26670
C530        C  0.11265210  0.38846829  0.38841316    -0.02770
C531        C  0.13667346  0.39397324  0.39392798     0.09450
C532        C  0.15088517  0.37912094  0.37907666     0.03250
H533        H  0.09630379  0.39647496  0.39641703     0.10900
H534        H  0.17073735  0.37832338  0.37828669     0.09980
N535        N  0.05410271  0.33776145  0.33767138    -0.33860
N536        N  0.05679594  0.32069535  0.32060209    -0.26040
C537        C  0.03428172  0.31336175  0.31325862    -0.01280
C538        C  0.01695984  0.32654672  0.32644059     0.07330
C539        C  0.03011601  0.34179802  0.34170037     0.05420
H540        H  0.03080801  0.29954853  0.29944125     0.10530
H541        H  0.02287591  0.35487906  0.35478243     0.09360
N542        N  0.12846059  0.65827358  0.30124532    -0.25030
N543        N  0.14698274  0.64703191  0.31232299    -0.32880
C544        C  0.16830548  0.65579975  0.30354324     0.03310
C545        C  0.16309228  0.67336691  0.28613739     0.09340
C546        C  0.13772419  0.67458693  0.28503004    -0.03760
H547        H  0.18630356  0.64978574  0.30947195     0.10010
H548        H  0.12682477  0.68641720  0.27337086     0.11210
Cu549      Cu  0.14362776  0.62023168  0.33901146     0.44170
Cu550      Cu  0.09139217  0.65086707  0.30880712     0.41990
Cu551      Cu  0.08252296  0.60452024  0.35499530     0.43880
N552        N  0.13543518  0.59403844  0.36522870    -0.32410
N553        N  0.11255540  0.58840383  0.37095847    -0.26670
C554        C  0.11252142  0.57101870  0.38838954    -0.02770
C555        C  0.13655424  0.56548686  0.39385229     0.09450
C556        C  0.15074424  0.58030322  0.37894745     0.03250
H557        H  0.09618752  0.56305832  0.39645605     0.10900
H558        H  0.17059296  0.58108784  0.37811765     0.09980
N559        N  0.05394650  0.62199643  0.33779935    -0.33860
N560        N  0.05670579  0.63909126  0.32077035    -0.26040
C561        C  0.03422930  0.64659503  0.31350118    -0.01280
C562        C  0.01684688  0.63349828  0.32668109     0.07330
C563        C  0.02993653  0.61811464  0.34187091     0.05420
H564        H  0.03082064  0.66047991  0.29973447     0.10530
H565        H  0.02263368  0.60505793  0.35494148     0.09360
N566        N  0.12843668  0.30113558  0.65821088    -0.25030
N567        N  0.14695972  0.31221206  0.64696770    -0.32880
C568        C  0.16828263  0.30344046  0.65574154     0.03310
C569        C  0.16306887  0.28604028  0.67331517     0.09340
C570        C  0.13769972  0.28492831  0.67453248    -0.03760
H571        H  0.18627922  0.30937298  0.64973038     0.10010
H572        H  0.12680065  0.27327527  0.68636741     0.11210
Cu573      Cu  0.14360731  0.33889551  0.62016300     0.44170
Cu574      Cu  0.09136700  0.30869556  0.65079810     0.41990
Cu575      Cu  0.08250736  0.35487825  0.60444352     0.43880
N576        N  0.13542061  0.36511517  0.59397221    -0.32410
N577        N  0.11254203  0.37084390  0.58833431    -0.26670
C578        C  0.11251201  0.38828061  0.57095575    -0.02770
C579        C  0.13654559  0.39374850  0.56543129     0.09450
C580        C  0.15073248  0.37884083  0.58024538     0.03250
H581        H  0.09617839  0.39635040  0.56299596     0.10900
H582        H  0.17058166  0.37801568  0.58103597     0.09980
N583        N  0.05392779  0.33768961  0.62192148    -0.33860
N584        N  0.05668150  0.32066303  0.63901938    -0.26040
C585        C  0.03420165  0.31340344  0.64652663    -0.01280
C586        C  0.01682396  0.32658719  0.63342881     0.07330
C587        C  0.02991983  0.34176890  0.61804148     0.05420
H588        H  0.03078736  0.29964247  0.66041598     0.10530
H589        H  0.02262197  0.35484219  0.60498393     0.09360
N590        N  0.12921883  0.65834613  0.65856081    -0.25030
N591        N  0.14773021  0.64717264  0.64738780    -0.32880
C592        C  0.16906213  0.65595368  0.65615000     0.03310
C593        C  0.16386983  0.67345677  0.67363969     0.09340
C594        C  0.13850002  0.67461864  0.67481381    -0.03760
H595        H  0.18705852  0.64997861  0.65016567     0.10010
H596        H  0.12760789  0.68637506  0.68656034     0.11210
Cu597      Cu  0.14433110  0.62039933  0.62062196     0.44170
Cu598      Cu  0.09212162  0.65089375  0.65111973     0.41990
Cu599      Cu  0.08316526  0.60465594  0.60488678     0.43880
N600        N  0.13602176  0.59419140  0.59440021    -0.32410
N601        N  0.11311195  0.58856748  0.58878042    -0.26670
C602        C  0.11296749  0.57116886  0.57136074    -0.02770
C603        C  0.13696144  0.56560517  0.56577902     0.09450
C604        C  0.15124582  0.58042325  0.58060796     0.03250
H605        H  0.09658637  0.56321137  0.56339623     0.10900
H606        H  0.17109843  0.58117483  0.58134598     0.09980
N607        N  0.05462108  0.62200057  0.62222577    -0.33860
N608        N  0.05739693  0.63906269  0.63928543    -0.26040
C609        C  0.03492176  0.64646360  0.64667287    -0.01280
C610        C  0.01753280  0.63332803  0.63353110     0.07330
C611        C  0.03061103  0.61803232  0.61824554     0.05420
H612        H  0.03151939  0.66029334  0.66049366     0.10530
H613        H  0.02330524  0.60497586  0.60518361     0.09360
O614        O  0.78967526  0.50644723  0.50642505    -0.70680
O615        O  0.78964460  0.45414576  0.45412279    -0.71660
O616        O  0.78964566  0.45416750  0.50643255    -0.60280
O617        O  0.78964410  0.50646603  0.45416068    -0.68690
O618        O  0.83047747  0.50619347  0.45439300    -0.68240
O619        O  0.83047885  0.45440316  0.50615651    -0.59500
O620        O  0.83047692  0.45440169  0.45437648    -0.72010
O621        O  0.83051002  0.50616210  0.50613711    -0.70780
Cu622      Cu  0.78814055  0.48030241  0.48028157     1.04560
Cu623      Cu  0.83186394  0.48028575  0.48026159     1.04330
C624        C  0.81023147  0.51442407  0.51440285     0.95520
C625        C  0.81018626  0.44615142  0.44612054     0.94660
C626        C  0.81018537  0.44618721  0.51444326     0.86800
C627        C  0.81018370  0.51447783  0.44617864     0.93070
N628        N  0.83044143  0.30175054  0.30164480    -0.25030
N629        N  0.81191561  0.31290861  0.31280424    -0.32880
C630        C  0.79059929  0.30411617  0.30402753     0.03310
C631        C  0.79582757  0.28662324  0.28654387     0.09340
C632        C  0.82119252  0.28547490  0.28538422    -0.03760
H633        H  0.77259303  0.31007761  0.30999624     0.10010
H634        H  0.83210306  0.27372938  0.27364377     0.11210
Cu635      Cu  0.81528318  0.33966890  0.33955590     0.44170
Cu636      Cu  0.86749838  0.30922773  0.30910761     0.41990
Cu637      Cu  0.87644091  0.35548365  0.35535358     0.43880
N638        N  0.82353382  0.36587616  0.36576640    -0.32410
N639        N  0.84642514  0.37154078  0.37142414    -0.26670
C640        C  0.84649453  0.38894734  0.38884084    -0.02770
C641        C  0.82247262  0.39446429  0.39437160     0.09450
C642        C  0.80825308  0.37961504  0.37952020     0.03250
H643        H  0.86284114  0.39694292  0.39683696     0.10900
H644        H  0.78840348  0.37882246  0.37873909     0.09980
N645        N  0.90499396  0.33812056  0.33798937    -0.33860
N646        N  0.90219543  0.32105922  0.32093187    -0.26040
C647        C  0.92464989  0.31363889  0.31351408    -0.01280
C648        C  0.94206343  0.32675643  0.32662928     0.07330
C649        C  0.92901648  0.34206716  0.34193611     0.05420
H650        H  0.92802030  0.29980694  0.29968732     0.10530
H651        H  0.93635246  0.35511790  0.35498629     0.09360
N652        N  0.83028505  0.65924294  0.30207334    -0.25030
N653        N  0.81177127  0.64812366  0.31329290    -0.32880
C654        C  0.79043865  0.65684913  0.30448945     0.03310
C655        C  0.79563164  0.67426290  0.28692008     0.09340
C656        C  0.82100264  0.67542997  0.28573917    -0.03760
H657        H  0.77244796  0.65087306  0.31047472     0.10010
H658        H  0.83189031  0.68710577  0.27391630     0.11210
Cu659      Cu  0.81514352  0.62142703  0.34010092     0.44170
Cu660      Cu  0.86738039  0.65176487  0.30952310     0.41990
Cu661      Cu  0.87625850  0.60561200  0.35586904     0.43880
N662        N  0.82338281  0.59519376  0.36628020    -0.32410
N663        N  0.84627709  0.58954043  0.37192796    -0.26670
C664        C  0.84636769  0.57207337  0.38927214    -0.02770
C665        C  0.82235639  0.56649982  0.39476946     0.09450
C666        C  0.80811670  0.58137995  0.37997269     0.03250
H667        H  0.86272924  0.56404798  0.39722016     0.10900
H668        H  0.78826502  0.58212038  0.37916524     0.09980
N669        N  0.90482971  0.62283099  0.33844854    -0.33860
N670        N  0.90208681  0.63985249  0.32134492    -0.26040
C671        C  0.92457799  0.64712193  0.31387366    -0.01280
C672        C  0.94194251  0.63394626  0.32700458     0.07330
C673        C  0.92883028  0.61876265  0.34236965     0.05420
H674        H  0.92800949  0.66087808  0.29998397     0.10530
H675        H  0.93611160  0.60568909  0.35543645     0.09360
N676        N  0.83025456  0.30208546  0.65922176    -0.25030
N677        N  0.81174265  0.31331341  0.64810950    -0.32880
C678        C  0.79040913  0.30451444  0.65683991     0.03310
C679        C  0.79559905  0.28693968  0.67424861     0.09340
C680        C  0.82096943  0.28575147  0.67540799    -0.03760
H681        H  0.77241755  0.31050640  0.65086949     0.10010
H682        H  0.83185630  0.27392155  0.68707922     0.11210
Cu683      Cu  0.81512112  0.34012306  0.62141267     0.44170
Cu684      Cu  0.86735088  0.30952002  0.65173377     0.41990
Cu685      Cu  0.87624349  0.35585955  0.60557663     0.43880
N686        N  0.82336935  0.36629689  0.59517328    -0.32410
N687        N  0.84626541  0.37193256  0.58951215    -0.26670
C688        C  0.84636171  0.38927436  0.57204178    -0.02770
C689        C  0.82235177  0.39478274  0.56647442     0.09450
C690        C  0.80810750  0.37999483  0.58136163     0.03250
H691        H  0.86272433  0.39721200  0.56401048     0.10900
H692        H  0.78825621  0.37919658  0.58210788     0.09980
N693        N  0.90481053  0.33842399  0.62278805    -0.33860
N694        N  0.90206087  0.32132270  0.63981113    -0.26040
C695        C  0.92454860  0.31383842  0.64707437    -0.01280
C696        C  0.94191897  0.32695819  0.63389320     0.07330
C697        C  0.92881332  0.34233078  0.61871236     0.05420
H698        H  0.92797379  0.29994697  0.66083009     0.10530
H699        H  0.93610008  0.35539171  0.60563672     0.09360
N700        N  0.83110771  0.65871326  0.65873653    -0.25030
N701        N  0.81256096  0.64758534  0.64758629    -0.32880
C702        C  0.79125638  0.65638456  0.65637072     0.03310
C703        C  0.79651178  0.67385793  0.67385746     0.09340
C704        C  0.82188179  0.67499006  0.67501328    -0.03760
H705        H  0.77325200  0.65044004  0.65040876     0.10010
H706        H  0.83280036  0.68671165  0.68675233     0.11210
Cu707      Cu  0.81583992  0.62085409  0.62084815     0.44170
Cu708      Cu  0.86815098  0.65116599  0.65122155     0.41990
Cu709      Cu  0.87688307  0.60489008  0.60493563     0.43880
N710        N  0.82394329  0.59464997  0.59464607    -0.32410
N711        N  0.84680266  0.58891911  0.58893409    -0.26670
C712        C  0.84677232  0.57151208  0.57152625    -0.02770
C713        C  0.82271968  0.56607216  0.56606616     0.09450
C714        C  0.80858303  0.58095972  0.58094238     0.03250
H715        H  0.86307982  0.56345839  0.56348711     0.10900
H716        H  0.78873464  0.58181026  0.58177752     0.09980
N717        N  0.90550405  0.62216511  0.62224683    -0.33860
N718        N  0.90279608  0.63922986  0.63931597    -0.26040
C719        C  0.92529473  0.64657256  0.64668588    -0.01280
C720        C  0.94263446  0.63339962  0.63352600     0.07330
C721        C  0.92950079  0.61814026  0.61824603     0.05420
H722        H  0.92874495  0.66038598  0.66050911     0.10530
H723        H  0.93676313  0.60506374  0.60517209     0.09360
C724        C  0.24980781  0.21850893  0.25008542     0.05390
C725        C  0.26029861  0.22907811  0.22905917    -0.10760
C726        C  0.24980058  0.25009947  0.21848142     0.02890
C727        C  0.22869563  0.26052257  0.22896903    -0.09280
C728        C  0.21812673  0.25002359  0.24999680     0.05380
C729        C  0.22870409  0.22900193  0.26050137    -0.08700
H730        H  0.27689355  0.22127351  0.22125883     0.10980
H731        H  0.22083588  0.27704189  0.22110690     0.08510
H732        H  0.22084647  0.22114193  0.27703304     0.08360
C733        C  0.81452165  0.41218281  0.41211198    -0.11010
C734        C  0.81085877  0.42758392  0.42753317    -0.12570
C735        C  0.81083856  0.42770061  0.53310106    -0.11010
C736        C  0.81444249  0.41239149  0.54861933    -0.12570
C737        C  0.81083638  0.53313191  0.42768953    -0.11010
C738        C  0.81444184  0.54864689  0.41237767    -0.12570
C739        C  0.81093621  0.53298644  0.53297128    -0.11010
C740        C  0.81466345  0.54838097  0.54837006    -0.12570
C741        C  0.99117564  0.63489951  0.63507794    -0.11010
C742        C  0.96899495  0.63491424  0.63506968    -0.12570
C743        C  0.99046404  0.32517406  0.63513917    -0.11010
C744        C  0.96828167  0.32527796  0.63528483    -0.12570
C745        C  0.99048796  0.63520281  0.32525273    -0.11010
C746        C  0.96830572  0.63534476  0.32534113    -0.12570
C747        C  0.19734957  0.26169284  0.26165915    -0.11010
C748        C  0.18096938  0.27228878  0.27224970    -0.12570
C749        C  0.99059457  0.32506545  0.32495077    -0.11010
C750        C  0.96841426  0.32514326  0.32502232    -0.12570
C751        C  0.14462041  0.41168948  0.41165431    -0.11010
C752        C  0.14824210  0.42709477  0.42707149    -0.12570
C753        C  0.14822973  0.42697363  0.53242002    -0.11010
C754        C  0.14453869  0.41151724  0.54777147    -0.12570
C755        C  0.14454381  0.54781389  0.41160960    -0.11010
C756        C  0.14823351  0.53245210  0.42705613    -0.12570
C757        C  0.14481461  0.54787305  0.54800932    -0.11010
C758        C  0.14837016  0.53246638  0.53256844    -0.12570
C759        C  0.77784085  0.68800549  0.27293633    -0.11010
C760        C  0.76148738  0.69849677  0.26219864    -0.12570
C761        C  0.68619686  0.77848400  0.27185068    -0.11010
C762        C  0.69703859  0.76214939  0.26143861    -0.12850
C763        C  0.42615682  0.81146019  0.42805851    -0.11010
C764        C  0.41056245  0.81510113  0.41283967    -0.12570
C765        C  0.42731478  0.81143610  0.53338201    -0.11010
C766        C  0.41203786  0.81512114  0.54890734    -0.12570
C767        C  0.53154014  0.81135815  0.42679434    -0.11010
C768        C  0.54673492  0.81500391  0.41117446    -0.12570
C769        C  0.54824050  0.81484523  0.54764991    -0.11010
C770        C  0.53271314  0.81126258  0.53234262    -0.12570
C771        C  0.63551447  0.96871395  0.63417350    -0.11010
C772        C  0.63548178  0.99089788  0.63420308    -0.12570
C773        C  0.32559962  0.96919601  0.63611788    -0.11010
C774        C  0.32555766  0.99138259  0.63607799    -0.12570
C775        C  0.63393022  0.99108107  0.32433799    -0.11010
C776        C  0.63371523  0.96889713  0.32419145    -0.12570
C777        C  0.26155404  0.19782792  0.26183755    -0.11010
C778        C  0.27220390  0.18152016  0.27248397    -0.12570
C779        C  0.32385325  0.99121762  0.32591819    -0.11010
C780        C  0.32368490  0.96903523  0.32605104    -0.12570
C781        C  0.41167281  0.14514545  0.41191808    -0.11010
C782        C  0.42707154  0.14876975  0.42734328    -0.12570
C783        C  0.41184426  0.14515890  0.54839144    -0.11010
C784        C  0.42718370  0.14874884  0.53289508    -0.12570
C785        C  0.53254026  0.14867917  0.42737487    -0.11010
C786        C  0.54800349  0.14504843  0.41201770    -0.12570
C787        C  0.54807395  0.14492817  0.54796207    -0.11010
C788        C  0.53260032  0.14861275  0.53263523    -0.12570
C789        C  0.42614514  0.42812242  0.81147432    -0.11010
C790        C  0.41053565  0.41291307  0.81510601    -0.12570
C791        C  0.54676814  0.41124484  0.81504157    -0.11010
C792        C  0.53155900  0.42684987  0.81138845    -0.12570
C793        C  0.41209556  0.54899294  0.81515719    -0.11010
C794        C  0.42735694  0.53345416  0.81146307    -0.12570
C795        C  0.53273207  0.53238366  0.81128770    -0.11010
C796        C  0.54826216  0.54768997  0.81486913    -0.12570
C797        C  0.69795511  0.69788110  0.19767800    -0.11010
C798        C  0.68747688  0.68718117  0.18129756    -0.12570
C799        C  0.63555390  0.63412396  0.99090794    -0.11010
C800        C  0.63558650  0.63411531  0.96872733    -0.12570
C801        C  0.63369593  0.32420761  0.96893146    -0.11010
C802        C  0.63389540  0.32432940  0.99111272    -0.12570
C803        C  0.32566503  0.63615870  0.96925438    -0.11010
C804        C  0.32560995  0.63610035  0.99143763    -0.12570
C805        C  0.26153795  0.26184402  0.19779261    -0.11010
C806        C  0.27218109  0.27248490  0.18147800    -0.12570
C807        C  0.32362368  0.32612473  0.96900348    -0.11010
C808        C  0.32379918  0.32598646  0.99118301    -0.12570
C809        C  0.42704741  0.42732955  0.14878607    -0.11010
C810        C  0.41164564  0.41190984  0.14514531    -0.12570
C811        C  0.53249770  0.42731263  0.14871319    -0.11010
C812        C  0.54794815  0.41194185  0.14508461    -0.12570
C813        C  0.42718566  0.53286996  0.14878307    -0.11010
C814        C  0.41183776  0.54835901  0.14519582    -0.12570
C815        C  0.54811402  0.54788648  0.14494590    -0.11010
C816        C  0.53262490  0.53257484  0.14864063    -0.12570
C817        C  0.76178113  0.26206592  0.26202673    -0.11010
C818        C  0.77808285  0.27272602  0.27266912    -0.12570
C819        C  0.69789431  0.26188286  0.19787228    -0.11010
C820        C  0.68730582  0.27250174  0.18150624    -0.12570
C821        C  0.69793546  0.19785210  0.26193798    -0.11010
C822        C  0.68736259  0.18148600  0.27257643    -0.12570
C823        C  0.26175210  0.69845176  0.76245632    -0.11010
C824        C  0.27247731  0.68801552  0.77884566    -0.12570
C825        C  0.26171352  0.76239399  0.69842280    -0.11010
C826        C  0.27242330  0.77877695  0.68795593    -0.12570
C827        C  0.19795376  0.69802465  0.69814630    -0.11010
C828        C  0.18164836  0.68735288  0.68750231    -0.12570
C829        C  0.26091612  0.26249410  0.76226303    -0.11010
C830        C  0.27132409  0.27331421  0.77861536    -0.12570
C831        C  0.18084369  0.27225694  0.68726468    -0.11010
C832        C  0.19720706  0.26174726  0.69796046    -0.12570
C833        C  0.27245186  0.18184360  0.68791934    -0.11010
C834        C  0.26171147  0.19817230  0.69845703    -0.12570
C835        C  0.69704867  0.26149875  0.76218056    -0.11010
C836        C  0.68622234  0.27192015  0.77851811    -0.12570
C837        C  0.76145601  0.26222550  0.69849734    -0.11010
C838        C  0.77780733  0.27295879  0.68799558    -0.12570
C839        C  0.69790850  0.19769608  0.69794982    -0.11010
C840        C  0.68742055  0.18131075  0.68726258    -0.12570
C841        C  0.26094115  0.76229085  0.26246313    -0.11010
C842        C  0.27135809  0.77864789  0.27326822    -0.12570
C843        C  0.26169904  0.69842230  0.19820975    -0.11010
C844        C  0.27243439  0.68787780  0.18188436    -0.12570
C845        C  0.18086549  0.68730028  0.27233555    -0.11010
C846        C  0.19722560  0.69798166  0.26180526    -0.12570
C847        C  0.76239226  0.69832781  0.69832409    -0.11010
C848        C  0.77876508  0.68773640  0.68773311    -0.12570
C849        C  0.69814717  0.76209862  0.69801975    -0.11010
C850        C  0.68758793  0.77839767  0.68726654    -0.12570
C851        C  0.69816638  0.69804480  0.76210280    -0.11010
C852        C  0.68761372  0.68729872  0.77841010    -0.12570
loop_ 
_geom_bond_atom_site_label_1 
_geom_bond_atom_site_label_2 
_geom_bond_distance 
_geom_bond_site_symmetry_2 
_ccdc_geom_bond_type 
C1            C2   1.403       .  A
C1            C6   1.403       .  A
C1          C849   1.444       .  S
C2            C3   1.403       .  A
C2            H7   1.085       .  S
C3            C4   1.403       .  A
C3          C851   1.445       .  S
C4            C5   1.403       .  A
C4            H8   1.084       .  S
C5            C6   1.403       .  A
C5          C847   1.444       .  S
C6            H9   1.085       .  S
C10          C11   1.403       .  A
C10          C15   1.403       .  A
C10         C843   1.445       .  S
C11          C12   1.403       .  A
C11          H16   1.084       .  S
C12          C13   1.403       .  A
C12         C846   1.444       .  S
C13          C14   1.403       .  A
C13          H17   1.085       .  S
C14          C15   1.403       .  A
C14         C841   1.444       .  S
C15          H18   1.085       .  S
C19          C20   1.403       .  A
C19          C24   1.403       .  A
C19         C837   1.445       .  S
C20          C21   1.403       .  A
C20          H25   1.085       .  S
C21          C22   1.403       .  A
C21         C839   1.444       .  S
C22          C23   1.403       .  A
C22          H26   1.085       .  S
C23          C24   1.403       .  A
C23         C835   1.444       .  S
C24          H27   1.084       .  S
C28          C29   1.403       .  A
C28          C33   1.403       .  A
C28         C834   1.445       .  S
C29          C30   1.403       .  A
C29          H34   1.084       .  S
C30          C31   1.403       .  A
C30         C832   1.444       .  S
C31          C32   1.403       .  A
C31          H35   1.084       .  S
C32          C33   1.403       .  A
C32         C829   1.444       .  S
C33          H36   1.085       .  S
C37          C38   1.403       .  A
C37          C42   1.403       .  A
C37         C827   1.445       .  S
C38          C39   1.403       .  A
C38          H43   1.085       .  S
C39          C40   1.403       .  A
C39         C825   1.444       .  S
C40          C41   1.402       .  A
C40          H44   1.085       .  S
C41          C42   1.403       .  A
C41         C823   1.444       .  S
C42          H45   1.084       .  S
C46          C47   1.403       .  A
C46          C51   1.403       .  A
C46         C821   1.444       .  S
C47          C48   1.403       .  A
C47          H52   1.085       .  S
C48          C49   1.403       .  A
C48         C819   1.445       .  S
C49          C50   1.403       .  A
C49          H53   1.084       .  S
C50          C51   1.403       .  A
C50         C817   1.444       .  S
C51          H54   1.085       .  S
O55         Cu63   1.995       .  S
O55          C65   1.275       .  A
O56         Cu63   1.995       .  S
O56          C66   1.275       .  A
O57         Cu63   1.994       .  S
O57          C67   1.275       .  A
O58         Cu63   1.994       .  S
O58          C68   1.275       .  A
O59         Cu64   2.015       .  S
O59          C68   1.277       .  A
O60         Cu64   2.015       .  S
O60          C67   1.277       .  A
O61         Cu64   2.015       .  S
O61          C66   1.277       .  A
O62         Cu64   2.015       .  S
O62          C65   1.277       .  A
Cu63        Cu64   2.381       .  S
C65         C811   1.430       .  S
C66         C813   1.431       .  S
C67         C816   1.430       .  S
C68         C809   1.430       .  S
N69          N70   1.325       .  A
N69          C73   1.350       .  A
N69         Cu77   2.099       .  S
N70          C71   1.344       .  A
N70         Cu76   2.068       .  S
C71          C72   1.376       .  A
C71          H74   1.082       .  S
C72          C73   1.384       .  A
C72         C806   1.441       .  S
C73          H75   1.081       .  S
Cu76         N79   2.067       .  S
Cu77         N87   2.098       .  S
Cu78         N80   2.049       .  S
Cu78         N86   2.049       .  S
N79          N80   1.320       .  A
N79          C83   1.346       .  A
N80          C81   1.340       .  A
C81          C82   1.375       .  A
C81          H84   1.082       .  S
C82          C83   1.381       .  A
C82         C810   1.432       .  S
C83          H85   1.082       .  S
N86          N87   1.322       .  A
N86          C90   1.343       .  A
N87          C88   1.350       .  A
C88          C89   1.385       .  A
C88          H91   1.081       .  S
C89          C90   1.376       .  A
C89         C808   1.440   1_554  S
C90          H92   1.082       .  S
N93          N94   1.325       .  A
N93          C97   1.350       .  A
N93        Cu101   2.100       .  S
N94          C95   1.344       .  A
N94        Cu100   2.069       .  S
C95          C96   1.376       .  A
C95          H98   1.082       .  S
C96          C97   1.384       .  A
C96         C844   1.442       .  S
C97          H99   1.082       .  S
Cu100       N103   2.068       .  S
Cu101       N111   2.099       .  S
Cu102       N104   2.049       .  S
Cu102       N110   2.049       .  S
N103        N104   1.320       .  A
N103        C107   1.347       .  A
N104        C105   1.340       .  A
C105        C106   1.375       .  A
C105        H108   1.082       .  S
C106        C107   1.381       .  A
C106        C814   1.432       .  S
C107        H109   1.082       .  S
N110        N111   1.322       .  A
N110        C114   1.343       .  A
N111        C112   1.350       .  A
C112        C113   1.385       .  A
C112        H115   1.081       .  S
C113        C114   1.376       .  A
C113        C804   1.440   1_554  S
C114        H116   1.082       .  S
N117        N118   1.325       .  A
N117        C121   1.350       .  A
N117       Cu125   2.100       .  S
N118        C119   1.344       .  A
N118       Cu124   2.068       .  S
C119        C120   1.376       .  A
C119        H122   1.082       .  S
C120        C121   1.384       .  A
C120        C820   1.441       .  S
C121        H123   1.082       .  S
Cu124       N127   2.067       .  S
Cu125       N135   2.099       .  S
Cu126       N128   2.048       .  S
Cu126       N134   2.049       .  S
N127        N128   1.320       .  A
N127        C131   1.346       .  A
N128        C129   1.340       .  A
C129        C130   1.375       .  A
C129        H132   1.082       .  S
C130        C131   1.381       .  A
C130        C812   1.432       .  S
C131        H133   1.082       .  S
N134        N135   1.322       .  A
N134        C138   1.343       .  A
N135        C136   1.350       .  A
C136        C137   1.385       .  A
C136        H139   1.081       .  S
C137        C138   1.376       .  A
C137        C802   1.440   1_554  S
C138        H140   1.082       .  S
N141        N142   1.325       .  A
N141        C145   1.350       .  A
N141       Cu149   2.099       .  S
N142        C143   1.343       .  A
N142       Cu148   2.066       .  S
C143        C144   1.376       .  A
C143        H146   1.082       .  S
C144        C145   1.384       .  A
C144        C798   1.441       .  S
C145        H147   1.082       .  S
Cu148       N151   2.066       .  S
Cu149       N159   2.098       .  S
Cu150       N152   2.049       .  S
Cu150       N158   2.050       .  S
N151        N152   1.320       .  A
N151        C155   1.346       .  A
N152        C153   1.340       .  A
C153        C154   1.376       .  A
C153        H156   1.082       .  S
C154        C155   1.381       .  A
C154        C815   1.431       .  S
C155        H157   1.082       .  S
N158        N159   1.322       .  A
N158        C162   1.343       .  A
N159        C160   1.350       .  A
C160        C161   1.385       .  A
C160        H163   1.081       .  S
C161        C162   1.376       .  A
C161        C799   1.440   1_554  S
C162        H164   1.082       .  S
O165       Cu173   2.015       .  S
O165        C175   1.277       .  A
O166       Cu173   2.015       .  S
O166        C176   1.277       .  A
O167       Cu173   2.015       .  S
O167        C177   1.277       .  A
O168       Cu173   2.015       .  S
O168        C178   1.277       .  A
O169       Cu174   1.994       .  S
O169        C178   1.275       .  A
O170       Cu174   1.994       .  S
O170        C177   1.275       .  A
O171       Cu174   1.995       .  S
O171        C176   1.275       .  A
O172       Cu174   1.995       .  S
O172        C175   1.275       .  A
Cu173      Cu174   2.381       .  S
C175        C789   1.430       .  S
C176        C795   1.431       .  S
C177        C792   1.430       .  S
C178        C794   1.430       .  S
N179        N180   1.325       .  A
N179        C183   1.350       .  A
N179       Cu187   2.099       .  S
N180        C181   1.344       .  A
N180       Cu186   2.068       .  S
C181        C182   1.376       .  A
C181        H184   1.082       .  S
C182        C183   1.384       .  A
C182        C830   1.441       .  S
C183        H185   1.082       .  S
Cu186       N189   2.067       .  S
Cu187       N197   2.098       .  S
Cu188       N190   2.048       .  S
Cu188       N196   2.049       .  S
N189        N190   1.320       .  A
N189        C193   1.346       .  A
N190        C191   1.340       .  A
C191        C192   1.375       .  A
C191        H194   1.082       .  S
C192        C193   1.381       .  A
C192        C790   1.432       .  S
C193        H195   1.082       .  S
N196        N197   1.322       .  A
N196        C200   1.343       .  A
N197        C198   1.350       .  A
C198        C199   1.385       .  A
C198        H201   1.081       .  S
C199        C200   1.376       .  A
C199        C807   1.440       .  S
C200        H202   1.082       .  S
N203        N204   1.325       .  A
N203        C207   1.350       .  A
N203       Cu211   2.099       .  S
N204        C205   1.343       .  A
N204       Cu210   2.067       .  S
C205        C206   1.376       .  A
C205        H208   1.082       .  S
C206        C207   1.384       .  A
C206        C824   1.441       .  S
C207        H209   1.082       .  S
Cu210       N213   2.066       .  S
Cu211       N221   2.098       .  S
Cu212       N214   2.049       .  S
Cu212       N220   2.050       .  S
N213        N214   1.320       .  A
N213        C217   1.346       .  A
N214        C215   1.340       .  A
C215        C216   1.375       .  A
C215        H218   1.082       .  S
C216        C217   1.381       .  A
C216        C793   1.431       .  S
C217        H219   1.082       .  S
N220        N221   1.322       .  A
N220        C224   1.343       .  A
N221        C222   1.350       .  A
C222        C223   1.385       .  A
C222        H225   1.081       .  S
C223        C224   1.376       .  A
C223        C803   1.440       .  S
C224        H226   1.082       .  S
N227        N228   1.325       .  A
N227        C231   1.350       .  A
N227       Cu235   2.099       .  S
N228        C229   1.344       .  A
N228       Cu234   2.068       .  S
C229        C230   1.376       .  A
C229        H232   1.082       .  S
C230        C231   1.384       .  A
C230        C836   1.441       .  S
C231        H233   1.082       .  S
Cu234       N237   2.067       .  S
Cu235       N245   2.098       .  S
Cu236       N238   2.049       .  S
Cu236       N244   2.050       .  S
N237        N238   1.320       .  A
N237        C241   1.346       .  A
N238        C239   1.340       .  A
C239        C240   1.375       .  A
C239        H242   1.082       .  S
C240        C241   1.381       .  A
C240        C791   1.432       .  S
C241        H243   1.082       .  S
N244        N245   1.322       .  A
N244        C248   1.343       .  A
N245        C246   1.349       .  A
C246        C247   1.385       .  A
C246        H249   1.081       .  S
C247        C248   1.376       .  A
C247        C801   1.440       .  S
C248        H250   1.082       .  S
N251        N252   1.325       .  A
N251        C255   1.350       .  A
N251       Cu259   2.099       .  S
N252        C253   1.344       .  A
N252       Cu258   2.069       .  S
C253        C254   1.376       .  A
C253        H256   1.082       .  S
C254        C255   1.384       .  A
C254        C852   1.441       .  S
C255        H257   1.081       .  S
Cu258       N261   2.068       .  S
Cu259       N269   2.098       .  S
Cu260       N262   2.048       .  S
Cu260       N268   2.049       .  S
N261        N262   1.320       .  A
N261        C265   1.347       .  A
N262        C263   1.340       .  A
C263        C264   1.375       .  A
C263        H266   1.082       .  S
C264        C265   1.381       .  A
C264        C796   1.432       .  S
C265        H267   1.082       .  S
N268        N269   1.322       .  A
N268        C272   1.343       .  A
N269        C270   1.350       .  A
C270        C271   1.385       .  A
C270        H273   1.081       .  S
C271        C272   1.376       .  A
C271        C800   1.440       .  S
C272        H274   1.082       .  S
O275       Cu283   2.015       .  S
O275        C285   1.277       .  A
O276       Cu283   2.016       .  S
O276        C286   1.277       .  A
O277       Cu283   2.015       .  S
O277        C287   1.277       .  A
O278       Cu283   2.015       .  S
O278        C288   1.277       .  A
O279       Cu284   1.995       .  S
O279        C288   1.275       .  A
O280       Cu284   1.994       .  S
O280        C287   1.275       .  A
O281       Cu284   1.995       .  S
O281        C286   1.275       .  A
O282       Cu284   1.995       .  S
O282        C285   1.275       .  A
Cu283      Cu284   2.381       .  S
C285        C785   1.431       .  S
C286        C784   1.431       .  S
C287        C788   1.430       .  S
C288        C782   1.431       .  S
N289        N290   1.325       .  A
N289        C293   1.350       .  A
N289       Cu297   2.098       .  S
N290        C291   1.344       .  A
N290       Cu296   2.069       .  S
C291        C292   1.376       .  A
C291        H294   1.081       .  S
C292        C293   1.384       .  A
C292        C778   1.441       .  S
C293        H295   1.081       .  S
Cu296       N299   2.068       .  S
Cu297       N307   2.097       .  S
Cu298       N300   2.048       .  S
Cu298       N306   2.049       .  S
N299        N300   1.320       .  A
N299        C303   1.347       .  A
N300        C301   1.341       .  A
C301        C302   1.375       .  A
C301        H304   1.081       .  S
C302        C303   1.381       .  A
C302        C781   1.432       .  S
C303        H305   1.080       .  S
N306        N307   1.322       .  A
N306        C310   1.342       .  A
N307        C308   1.349       .  A
C308        C309   1.385       .  A
C308        H311   1.082       .  S
C309        C310   1.376       .  A
C309        C779   1.439   1_545  S
C310        H312   1.083       .  S
N313        N314   1.325       .  A
N313        C317   1.350       .  A
N313       Cu321   2.099       .  S
N314        C315   1.344       .  A
N314       Cu320   2.068       .  S
C315        C316   1.376       .  A
C315        H318   1.081       .  S
C316        C317   1.384       .  A
C316        C822   1.441       .  S
C317        H319   1.082       .  S
Cu320       N323   2.067       .  S
Cu321       N331   2.098       .  S
Cu322       N324   2.048       .  S
Cu322       N330   2.049       .  S
N323        N324   1.320       .  A
N323        C327   1.347       .  A
N324        C325   1.341       .  A
C325        C326   1.375       .  A
C325        H328   1.081       .  S
C326        C327   1.381       .  A
C326        C786   1.432       .  S
C327        H329   1.080       .  S
N330        N331   1.322       .  A
N330        C334   1.342       .  A
N331        C332   1.349       .  A
C332        C333   1.385       .  A
C332        H335   1.082       .  S
C333        C334   1.376       .  A
C333        C775   1.440   1_545  S
C334        H336   1.083       .  S
N337        N338   1.325       .  A
N337        C341   1.350       .  A
N337       Cu345   2.099       .  S
N338        C339   1.344       .  A
N338       Cu344   2.069       .  S
C339        C340   1.377       .  A
C339        H342   1.081       .  S
C340        C341   1.384       .  A
C340        C833   1.442       .  S
C341        H343   1.082       .  S
Cu344       N347   2.069       .  S
Cu345       N355   2.098       .  S
Cu346       N348   2.048       .  S
Cu346       N354   2.049       .  S
N347        N348   1.320       .  A
N347        C351   1.347       .  A
N348        C349   1.341       .  A
C349        C350   1.375       .  A
C349        H352   1.081       .  S
C350        C351   1.381       .  A
C350        C783   1.432       .  S
C351        H353   1.080       .  S
N354        N355   1.322       .  A
N354        C358   1.342       .  A
N355        C356   1.349       .  A
C356        C357   1.385       .  A
C356        H359   1.082       .  S
C357        C358   1.376       .  A
C357        C774   1.440   1_545  S
C358        H360   1.083       .  S
N361        N362   1.325       .  A
N361        C365   1.350       .  A
N361       Cu369   2.098       .  S
N362        C363   1.344       .  A
N362       Cu368   2.067       .  S
C363        C364   1.376       .  A
C363        H366   1.081       .  S
C364        C365   1.384       .  A
C364        C840   1.441       .  S
C365        H367   1.082       .  S
Cu368       N371   2.066       .  S
Cu369       N379   2.097       .  S
Cu370       N372   2.048       .  S
Cu370       N378   2.049       .  S
N371        N372   1.320       .  A
N371        C375   1.347       .  A
N372        C373   1.341       .  A
C373        C374   1.376       .  A
C373        H376   1.081       .  S
C374        C375   1.381       .  A
C374        C787   1.432       .  S
C375        H377   1.080       .  S
N378        N379   1.322       .  A
N378        C382   1.342       .  A
N379        C380   1.349       .  A
C380        C381   1.385       .  A
C380        H383   1.082       .  S
C381        C382   1.376       .  A
C381        C772   1.440   1_545  S
C382        H384   1.082       .  S
O385       Cu393   1.995       .  S
O385        C395   1.275       .  A
O386       Cu393   1.995       .  S
O386        C396   1.275       .  A
O387       Cu393   1.994       .  S
O387        C397   1.275       .  A
O388       Cu393   1.995       .  S
O388        C398   1.275       .  A
O389       Cu394   2.015       .  S
O389        C398   1.277       .  A
O390       Cu394   2.015       .  S
O390        C397   1.277       .  A
O391       Cu394   2.015       .  S
O391        C396   1.277       .  A
O392       Cu394   2.015       .  S
O392        C395   1.277       .  A
Cu393      Cu394   2.381       .  S
C395        C770   1.431       .  S
C396        C763   1.431       .  S
C397        C765   1.430       .  S
C398        C767   1.431       .  S
N399        N400   1.325       .  A
N399        C403   1.350       .  A
N399       Cu407   2.098       .  S
N400        C401   1.344       .  A
N400       Cu406   2.068       .  S
C401        C402   1.376       .  A
C401        H404   1.081       .  S
C402        C403   1.384       .  A
C402        C842   1.441       .  S
C403        H405   1.082       .  S
Cu406       N409   2.067       .  S
Cu407       N417   2.097       .  S
Cu408       N410   2.048       .  S
Cu408       N416   2.049       .  S
N409        N410   1.320       .  A
N409        C413   1.347       .  A
N410        C411   1.341       .  A
C411        C412   1.375       .  A
C411        H414   1.081       .  S
C412        C413   1.381       .  A
C412        C764   1.432       .  S
C413        H415   1.080       .  S
N416        N417   1.322       .  A
N416        C420   1.342       .  A
N417        C418   1.349       .  A
C418        C419   1.385       .  A
C418        H421   1.082       .  S
C419        C420   1.376       .  A
C419        C780   1.439       .  S
C420        H422   1.082       .  S
N423        N424   1.325       .  A
N423        C427   1.350       .  A
N423       Cu431   2.098       .  S
N424        C425   1.344       .  A
N424       Cu430   2.068       .  S
C425        C426   1.376       .  A
C425        H428   1.081       .  S
C426        C427   1.384       .  A
C426        C761   1.441       .  S
C427        H429   1.082       .  S
Cu430       N433   2.067       .  S
Cu431       N441   2.097       .  S
Cu432       N434   2.049       .  S
Cu432       N440   2.049       .  S
N433        N434   1.320       .  A
N433        C437   1.347       .  A
N434        C435   1.341       .  A
C435        C436   1.376       .  A
C435        H438   1.081       .  S
C436        C437   1.381       .  A
C436        C768   1.432       .  S
C437        H439   1.080       .  S
N440        N441   1.323       .  A
N440        C444   1.342       .  A
N441        C442   1.349       .  A
C442        C443   1.385       .  A
C442        H445   1.082       .  S
C443        C444   1.376       .  A
C443        C776   1.440       .  S
C444        H446   1.083       .  S
N447        N448   1.325       .  A
N447        C451   1.350       .  A
N447       Cu455   2.098       .  S
N448        C449   1.344       .  A
N448       Cu454   2.067       .  S
C449        C450   1.376       .  A
C449        H452   1.081       .  S
C450        C451   1.384       .  A
C450        C826   1.441       .  S
C451        H453   1.082       .  S
Cu454       N457   2.066       .  S
Cu455       N465   2.098       .  S
Cu456       N458   2.049       .  S
Cu456       N464   2.049       .  S
N457        N458   1.320       .  A
N457        C461   1.347       .  A
N458        C459   1.341       .  A
C459        C460   1.376       .  A
C459        H462   1.081       .  S
C460        C461   1.381       .  A
C460        C766   1.432       .  S
C461        H463   1.080       .  S
N464        N465   1.323       .  A
N464        C468   1.342       .  A
N465        C466   1.349       .  A
C466        C467   1.385       .  A
C466        H469   1.082       .  S
C467        C468   1.376       .  A
C467        C773   1.440       .  S
C468        H470   1.083       .  S
N471        N472   1.325       .  A
N471        C475   1.350       .  A
N471       Cu479   2.098       .  S
N472        C473   1.344       .  A
N472       Cu478   2.069       .  S
C473        C474   1.376       .  A
C473        H476   1.081       .  S
C474        C475   1.384       .  A
C474        C850   1.441       .  S
C475        H477   1.081       .  S
Cu478       N481   2.068       .  S
Cu479       N489   2.097       .  S
Cu480       N482   2.048       .  S
Cu480       N488   2.049       .  S
N481        N482   1.320       .  A
N481        C485   1.347       .  A
N482        C483   1.341       .  A
C483        C484   1.375       .  A
C483        H486   1.081       .  S
C484        C485   1.381       .  A
C484        C769   1.432       .  S
C485        H487   1.080       .  S
N488        N489   1.322       .  A
N488        C492   1.342       .  A
N489        C490   1.349       .  A
C490        C491   1.385       .  A
C490        H493   1.082       .  S
C491        C492   1.376       .  A
C491        C771   1.440       .  S
C492        H494   1.083       .  S
C495        C496   1.403       .  A
C495        C500   1.403       .  A
C495        C760   1.445       .  S
C496        C497   1.403       .  A
C496        H501   1.084       .  S
C497        C498   1.403       .  A
C497        C797   1.444       .  S
C498        C499   1.403       .  A
C498        H502   1.085       .  S
C499        C500   1.403       .  A
C499        C762   1.444       .  S
C500        H503   1.084       .  S
O504       Cu512   2.015       .  S
O504        C514   1.277       .  A
O505       Cu512   2.015       .  S
O505        C515   1.277       .  A
O506       Cu512   2.015       .  S
O506        C516   1.277       .  A
O507       Cu512   2.014       .  S
O507        C517   1.277       .  A
O508       Cu513   1.995       .  S
O508        C517   1.275       .  A
O509       Cu513   1.995       .  S
O509        C516   1.275       .  A
O510       Cu513   1.994       .  S
O510        C515   1.275       .  A
O511       Cu513   1.994       .  S
O511        C514   1.275       .  A
Cu512      Cu513   2.381       .  S
C514        C753   1.430       .  S
C515        C756   1.430       .  S
C516        C758   1.431       .  S
C517        C752   1.430       .  S
N518        N519   1.325       .  A
N518        C522   1.350       .  A
N518       Cu526   2.100       .  S
N519        C520   1.343       .  A
N519       Cu525   2.067       .  S
C520        C521   1.376       .  A
C520        H523   1.082       .  S
C521        C522   1.385       .  A
C521        C748   1.441       .  S
C522        H524   1.081       .  S
Cu525       N528   2.066       .  S
Cu526       N536   2.099       .  S
Cu527       N529   2.048       .  S
Cu527       N535   2.049       .  S
N528        N529   1.320       .  A
N528        C532   1.346       .  A
N529        C530   1.340       .  A
C530        C531   1.375       .  A
C530        H533   1.083       .  S
C531        C532   1.381       .  A
C531        C751   1.431       .  S
C532        H534   1.083       .  S
N535        N536   1.322       .  A
N535        C539   1.343       .  A
N536        C537   1.350       .  A
C537        C538   1.386       .  A
C537        H540   1.080       .  S
C538        C539   1.376       .  A
C538        C749   1.440   1_455  S
C539        H541   1.082       .  S
N542        N543   1.325       .  A
N542        C546   1.350       .  A
N542       Cu550   2.099       .  S
N543        C544   1.343       .  A
N543       Cu549   2.067       .  S
C544        C545   1.376       .  A
C544        H547   1.083       .  S
C545        C546   1.384       .  A
C545        C845   1.441       .  S
C546        H548   1.082       .  S
Cu549       N552   2.066       .  S
Cu550       N560   2.098       .  S
Cu551       N553   2.049       .  S
Cu551       N559   2.050       .  S
N552        N553   1.321       .  A
N552        C556   1.346       .  A
N553        C554   1.340       .  A
C554        C555   1.376       .  A
C554        H557   1.083       .  S
C555        C556   1.381       .  A
C555        C755   1.432       .  S
C556        H558   1.083       .  S
N559        N560   1.322       .  A
N559        C563   1.343       .  A
N560        C561   1.350       .  A
C561        C562   1.385       .  A
C561        H564   1.081       .  S
C562        C563   1.376       .  A
C562        C745   1.441   1_455  S
C563        H565   1.082       .  S
N566        N567   1.325       .  A
N566        C570   1.350       .  A
N566       Cu574   2.099       .  S
N567        C568   1.343       .  A
N567       Cu573   2.067       .  S
C568        C569   1.376       .  A
C568        H571   1.083       .  S
C569        C570   1.384       .  A
C569        C831   1.441       .  S
C570        H572   1.082       .  S
Cu573       N576   2.066       .  S
Cu574       N584   2.099       .  S
Cu575       N577   2.049       .  S
Cu575       N583   2.050       .  S
N576        N577   1.321       .  A
N576        C580   1.346       .  A
N577        C578   1.340       .  A
C578        C579   1.376       .  A
C578        H581   1.083       .  S
C579        C580   1.381       .  A
C579        C754   1.432       .  S
C580        H582   1.083       .  S
N583        N584   1.322       .  A
N583        C587   1.343       .  A
N584        C585   1.350       .  A
C585        C586   1.385       .  A
C585        H588   1.081       .  S
C586        C587   1.376       .  A
C586        C743   1.441   1_455  S
C587        H589   1.082       .  S
N590        N591   1.325       .  A
N590        C594   1.350       .  A
N590       Cu598   2.100       .  S
N591        C592   1.344       .  A
N591       Cu597   2.069       .  S
C592        C593   1.376       .  A
C592        H595   1.083       .  S
C593        C594   1.385       .  A
C593        C828   1.442       .  S
C594        H596   1.082       .  S
Cu597       N600   2.068       .  S
Cu598       N608   2.099       .  S
Cu599       N601   2.048       .  S
Cu599       N607   2.049       .  S
N600        N601   1.321       .  A
N600        C604   1.346       .  A
N601        C602   1.340       .  A
C602        C603   1.375       .  A
C602        H605   1.082       .  S
C603        C604   1.381       .  A
C603        C757   1.432       .  S
C604        H606   1.083       .  S
N607        N608   1.322       .  A
N607        C611   1.343       .  A
N608        C609   1.350       .  A
C609        C610   1.386       .  A
C609        H612   1.080       .  S
C610        C611   1.376       .  A
C610        C741   1.440   1_455  S
C611        H613   1.081       .  S
O614       Cu622   2.014       .  S
O614        C624   1.277       .  A
O615       Cu622   2.015       .  S
O615        C625   1.277       .  A
O616       Cu622   2.014       .  S
O616        C626   1.277       .  A
O617       Cu622   2.014       .  S
O617        C627   1.277       .  A
O618       Cu623   1.995       .  S
O618        C627   1.275       .  A
O619       Cu623   1.995       .  S
O619        C626   1.275       .  A
O620       Cu623   1.994       .  S
O620        C625   1.275       .  A
O621       Cu623   1.993       .  S
O621        C624   1.275       .  A
Cu622      Cu623   2.381       .  S
C624        C739   1.430       .  S
C625        C734   1.431       .  S
C626        C735   1.430       .  S
C627        C737   1.430       .  S
N628        N629   1.325       .  A
N628        C632   1.350       .  A
N628       Cu636   2.098       .  S
N629        C630   1.343       .  A
N629       Cu635   2.068       .  S
C630        C631   1.376       .  A
C630        H633   1.083       .  S
C631        C632   1.384       .  A
C631        C818   1.441       .  S
C632        H634   1.082       .  S
Cu635       N638   2.067       .  S
Cu636       N646   2.097       .  S
Cu637       N639   2.050       .  S
Cu637       N645   2.051       .  S
N638        N639   1.321       .  A
N638        C642   1.346       .  A
N639        C640   1.340       .  A
C640        C641   1.376       .  A
C640        H643   1.082       .  S
C641        C642   1.381       .  A
C641        C733   1.432       .  S
C642        H644   1.083       .  S
N645        N646   1.322       .  A
N645        C649   1.343       .  A
N646        C647   1.350       .  A
C647        C648   1.385       .  A
C647        H650   1.080       .  S
C648        C649   1.376       .  A
C648        C750   1.440       .  S
C649        H651   1.081       .  S
N652        N653   1.325       .  A
N652        C656   1.350       .  A
N652       Cu660   2.100       .  S
N653        C654   1.344       .  A
N653       Cu659   2.068       .  S
C654        C655   1.376       .  A
C654        H657   1.083       .  S
C655        C656   1.385       .  A
C655        C759   1.442       .  S
C656        H658   1.082       .  S
Cu659       N662   2.067       .  S
Cu660       N670   2.099       .  S
Cu661       N663   2.048       .  S
Cu661       N669   2.049       .  S
N662        N663   1.321       .  A
N662        C666   1.346       .  A
N663        C664   1.340       .  A
C664        C665   1.375       .  A
C664        H667   1.083       .  S
C665        C666   1.381       .  A
C665        C738   1.432       .  S
C666        H668   1.083       .  S
N669        N670   1.322       .  A
N669        C673   1.343       .  A
N670        C671   1.350       .  A
C671        C672   1.386       .  A
C671        H674   1.081       .  S
C672        C673   1.376       .  A
C672        C746   1.441       .  S
C673        H675   1.082       .  S
N676        N677   1.325       .  A
N676        C680   1.350       .  A
N676       Cu684   2.100       .  S
N677        C678   1.344       .  A
N677       Cu683   2.068       .  S
C678        C679   1.376       .  A
C678        H681   1.083       .  S
C679        C680   1.385       .  A
C679        C838   1.442       .  S
C680        H682   1.082       .  S
Cu683       N686   2.067       .  S
Cu684       N694   2.099       .  S
Cu685       N687   2.048       .  S
Cu685       N693   2.049       .  S
N686        N687   1.321       .  A
N686        C690   1.346       .  A
N687        C688   1.340       .  A
C688        C689   1.375       .  A
C688        H691   1.083       .  S
C689        C690   1.381       .  A
C689        C736   1.432       .  S
C690        H692   1.083       .  S
N693        N694   1.322       .  A
N693        C697   1.343       .  A
N694        C695   1.350       .  A
C695        C696   1.386       .  A
C695        H698   1.081       .  S
C696        C697   1.376       .  A
C696        C744   1.441       .  S
C697        H699   1.082       .  S
N700        N701   1.325       .  A
N700        C704   1.350       .  A
N700       Cu708   2.099       .  S
N701        C702   1.343       .  A
N701       Cu707   2.066       .  S
C702        C703   1.376       .  A
C702        H705   1.082       .  S
C703        C704   1.384       .  A
C703        C848   1.441       .  S
C704        H706   1.081       .  S
Cu707       N710   2.065       .  S
Cu708       N718   2.098       .  S
Cu709       N711   2.049       .  S
Cu709       N717   2.050       .  S
N710        N711   1.321       .  A
N710        C714   1.346       .  A
N711        C712   1.340       .  A
C712        C713   1.375       .  A
C712        H715   1.083       .  S
C713        C714   1.380       .  A
C713        C740   1.431       .  S
C714        H716   1.083       .  S
N717        N718   1.322       .  A
N717        C721   1.343       .  A
N718        C719   1.350       .  A
C719        C720   1.385       .  A
C719        H722   1.080       .  S
C720        C721   1.376       .  A
C720        C742   1.440       .  S
C721        H723   1.082       .  S
C724        C725   1.403       .  A
C724        C729   1.403       .  A
C724        C777   1.444       .  S
C725        C726   1.403       .  A
C725        H730   1.085       .  S
C726        C727   1.403       .  A
C726        C805   1.444       .  S
C727        C728   1.403       .  A
C727        H731   1.084       .  S
C728        C729   1.403       .  A
C728        C747   1.445       .  S
C729        H732   1.085       .  S
C733        C734   1.203       .  T
C735        C736   1.203       .  T
C737        C738   1.203       .  T
C739        C740   1.203       .  T
C741        C742   1.208       .  T
C743        C744   1.208       .  T
C745        C746   1.208       .  T
C747        C748   1.209       .  T
C749        C750   1.208       .  T
C751        C752   1.203       .  T
C753        C754   1.203       .  T
C755        C756   1.203       .  T
C757        C758   1.203       .  T
C759        C760   1.209       .  T
C761        C762   1.208       .  T
C763        C764   1.203       .  T
C765        C766   1.203       .  T
C767        C768   1.203       .  T
C769        C770   1.203       .  T
C771        C772   1.207       .  T
C773        C774   1.208       .  T
C775        C776   1.208       .  T
C777        C778   1.208       .  T
C779        C780   1.207       .  T
C781        C782   1.203       .  T
C783        C784   1.203       .  T
C785        C786   1.203       .  T
C787        C788   1.203       .  T
C789        C790   1.203       .  T
C791        C792   1.203       .  T
C793        C794   1.203       .  T
C795        C796   1.203       .  T
C797        C798   1.208       .  T
C799        C800   1.208       .  T
C801        C802   1.208       .  T
C803        C804   1.208       .  T
C805        C806   1.209       .  T
C807        C808   1.208       .  T
C809        C810   1.203       .  T
C811        C812   1.203       .  T
C813        C814   1.203       .  T
C815        C816   1.203       .  T
C817        C818   1.208       .  T
C819        C820   1.209       .  T
C821        C822   1.209       .  T
C823        C824   1.208       .  T
C825        C826   1.208       .  T
C827        C828   1.209       .  T
C829        C830   1.209       .  T
C831        C832   1.209       .  T
C833        C834   1.209       .  T
C835        C836   1.209       .  T
C837        C838   1.209       .  T
C839        C840   1.208       .  T
C841        C842   1.208       .  T
C843        C844   1.209       .  T
C845        C846   1.209       .  T
C847        C848   1.208       .  T
C849        C850   1.209       .  T
C851        C852   1.209       .  T
