geometry optimzed in LAMMPS
_audit_creation_date              2020-12-01 
_audit_creation_method            'lammps2cif' 
_symmetry_space_group_name_H-M    'P1' 
_symmetry_Int_Tables_number       1 
_symmetry_cell_setting            triclinic 
loop_ 
_symmetry_equiv_pos_as_xyz 
  x,y,z 
_cell_length_a                    83.99333278 
_cell_length_b                    42.61635197405379 
_cell_length_c                    35.76110981877998 
_cell_angle_alpha                 89.98443521217847 
_cell_angle_beta                  89.91832404083046 
_cell_angle_gamma                 90.05910362258065 
loop_ 
_atom_site_label 
_atom_site_type_symbol 
_atom_site_fract_x 
_atom_site_fract_y 
_atom_site_fract_z 
_atom_site_charge 
O1          O  0.57332276  0.51015236  0.97838742    -0.71700
O2          O  0.61923214  0.52950581  0.99852036    -0.72600
O3          O  0.59496962  0.55427152  0.95006515    -0.61300
O4          O  0.59660584  0.48579284  0.02675297    -0.69700
O5          O  0.60219519  0.45025062  0.98324792    -0.65200
O6          O  0.60320998  0.52027637  0.90720251    -0.60500
O7          O  0.62613173  0.49323273  0.95693051    -0.73000
O8          O  0.58048574  0.47703838  0.93329622    -0.71800
Cu9        Cu  0.59588931  0.52117450  0.99001723     1.04600
Cu10       Cu  0.60339338  0.48406483  0.94363149     1.04300
C11         C  0.56980633  0.49077781  0.95249046     0.94500
C12         C  0.62990509  0.51386393  0.98120605     0.93700
C13         C  0.59826817  0.54771055  0.91613028     0.85800
C14         C  0.59875887  0.45726750  0.01704186     0.92100
O15         O  0.41134160  0.44787812  0.98308611    -0.71700
O16         O  0.40880454  0.51819216  0.90739960    -0.72600
O17         O  0.43243601  0.47686107  0.93321820    -0.61300
O18         O  0.38644695  0.48889308  0.95720967    -0.69700
O19         O  0.39258743  0.52553740  0.99896416    -0.69200
O20         O  0.43890939  0.51027379  0.97855201    -0.60500
O21         O  0.41639336  0.55257782  0.95046832    -0.73000
O22         O  0.41616230  0.48363075  0.02682082    -0.71800
Cu23       Cu  0.40939114  0.48180993  0.94368617     1.04600
Cu24       Cu  0.41612022  0.51926902  0.99028833     1.04300
C25         C  0.41464368  0.45497422  0.01691653     0.94500
C26         C  0.41326081  0.54592373  0.91648265     0.93700
C27         C  0.44282398  0.49130601  0.95253928     0.85800
C28         C  0.38223792  0.50905477  0.98166606     0.92100
C29         C  0.41484501  0.59153135  0.82432023     0.87800
C30         C  0.41248653  0.62360818  0.84271462    -0.52500
C31         C  0.41968716  0.62632193  0.87667506     0.10700
C32         C  0.42837420  0.59634910  0.88948286     0.21600
C33         C  0.43296015  0.58673292  0.82307082    -0.53200
C34         C  0.44007074  0.58931268  0.85726469     0.10800
C35         C  0.40873124  0.56751682  0.85271533    -0.52700
C36         C  0.41576668  0.56980555  0.88699357     0.11400
H37         H  0.40637408  0.64299944  0.82919953     0.15900
H38         H  0.43426975  0.59851223  0.91715996     0.01600
H39         H  0.43956499  0.58220420  0.79750038     0.16200
H40         H  0.40000712  0.54957416  0.84589874     0.16000
C41         C  0.41717618  0.40966259  0.10844803     0.87800
C42         C  0.41390128  0.37747926  0.09112061    -0.52500
C43         C  0.42031549  0.37379464  0.05634261     0.10700
C44         C  0.42918186  0.40309404  0.04170110     0.21600
C45         C  0.43536987  0.41339596  0.10730368    -0.53200
C46         C  0.44168572  0.40993725  0.07227129     0.10800
C47         C  0.41089604  0.43356120  0.08032433    -0.52700
C48         C  0.41708446  0.43036807  0.04532109     0.11400
H49         H  0.40774934  0.35870483  0.10583277     0.15900
H50         H  0.43438305  0.40032017  0.01330815     0.01600
H51         H  0.44257680  0.41808188  0.13187114     0.16200
H52         H  0.40276486  0.45236866  0.08784763     0.16000
N53         N  0.32691188  0.54809977  0.52680243    -0.26000
N54         N  0.34016044  0.53679576  0.51202270    -0.33900
C55         C  0.35231193  0.54198231  0.53565230     0.02300
C56         C  0.34639699  0.55730362  0.56662120     0.08400
C57         C  0.33028533  0.56082918  0.56032563    -0.04700
H58         H  0.36448628  0.53470540  0.53082948     0.09000
H59         H  0.32161878  0.57127933  0.57891938     0.10200
Cu60       Cu  0.34114154  0.51435613  0.46079258     0.44200
Cu61       Cu  0.30484656  0.54409400  0.50123279     0.42000
Cu62       Cu  0.30408103  0.50338910  0.41135534     0.43900
N63         N  0.33967582  0.49453902  0.40811210    -0.33400
N64         N  0.32617587  0.49058603  0.38967835    -0.27600
C65         C  0.32945238  0.47813444  0.35589965    -0.03800
C66         C  0.34574372  0.47411221  0.35329340     0.08500
C67         C  0.35186666  0.48474140  0.38670764     0.02300
H68         H  0.32066356  0.47284550  0.33471559     0.09900
H69         H  0.36427884  0.48577895  0.39470726     0.09000
N70         N  0.28383979  0.51925197  0.43928205    -0.34800
N71         N  0.28419027  0.53428293  0.47166756    -0.27000
C72         C  0.26919253  0.54097899  0.48225863    -0.02300
C73         C  0.25898016  0.52965736  0.45526930     0.06300
C74         C  0.26857222  0.51597956  0.42845496     0.04400
H75         H  0.26598944  0.55280814  0.50790611     0.09500
H76         H  0.26476721  0.50426898  0.40318709     0.08400
C77         C  0.41813854  0.91178572  0.83013820     0.87800
C78         C  0.41156763  0.93441014  0.85953012    -0.52500
C79         C  0.41825499  0.93094299  0.89406443     0.10700
C80         C  0.43094415  0.90461905  0.89583227     0.21600
C81         C  0.43622461  0.91712959  0.83034130    -0.53200
C82         C  0.44294556  0.91336658  0.86483383     0.10800
C83         C  0.41576301  0.87894558  0.84649158    -0.52700
C84         C  0.42254826  0.87502320  0.88074674     0.11400
H85         H  0.40288518  0.95251217  0.85314180     0.15900
H86         H  0.43652725  0.90147758  0.92373155     0.01600
H87         H  0.44307411  0.92314052  0.80555992     0.16200
H88         H  0.40979599  0.86006949  0.83162930     0.16000
C89         C  0.41884724  0.08871759  0.11844587     0.87800
C90         C  0.41251675  0.06438973  0.09079261    -0.52500
C91         C  0.41824862  0.06793741  0.05535748     0.10700
C92         C  0.42990024  0.09588611  0.05092141     0.21600
C93         C  0.43703711  0.08595422  0.11602730    -0.53200
C94         C  0.44283347  0.08970788  0.08059131     0.10800
C95         C  0.41494378  0.12073434  0.10130246    -0.52700
C96         C  0.42086739  0.12471652  0.06609240     0.11400
H97         H  0.40475686  0.04512016  0.09888994     0.15900
H98         H  0.43472814  0.09891617  0.02219577     0.01600
H99         H  0.44461963  0.08158356  0.14005363     0.16200
H100        H  0.40877026  0.13921476  0.11642525     0.16000
N101        N  0.32670462  0.95878325  0.53887859    -0.26000
N102        N  0.34035935  0.96601597  0.52259422    -0.33900
C103        C  0.35239370  0.95930915  0.54595001     0.02300
C104        C  0.34598678  0.94728226  0.57841166     0.08400
C105        C  0.32968485  0.94725762  0.57324179    -0.04700
H106        H  0.36484809  0.96367032  0.54005641     0.09000
H107        H  0.32067373  0.94011429  0.59313938     0.10200
Cu108      Cu  0.34196779  0.98658516  0.47047149     0.44200
Cu109      Cu  0.30491597  0.96648972  0.51326773     0.42000
Cu110      Cu  0.30572414  0.00521312  0.42120144     0.43900
N111        N  0.34149461  0.00912046  0.41939150    -0.33400
N112        N  0.32830375  0.01627221  0.40112716    -0.27600
C113        C  0.33226639  0.03043894  0.36872764    -0.03800
C114        C  0.34868483  0.03217917  0.36691789     0.08500
C115        C  0.35416093  0.01846990  0.39929034     0.02300
H116        H  0.32385467  0.03836949  0.34789584     0.09900
H117        H  0.36644697  0.01509876  0.40747409     0.09000
N118        N  0.28512741  0.99017721  0.44822405    -0.34800
N119        N  0.28492113  0.97627354  0.48135430    -0.27000
C120        C  0.26976960  0.96980927  0.49080250    -0.02300
C121        C  0.26005768  0.98005236  0.46231021     0.06300
C122        C  0.27006810  0.99288439  0.43575614     0.04400
H123        H  0.26612573  0.95872917  0.51663412     0.09500
H124        H  0.26669464  0.00361133  0.40955832     0.08400
O125        O  0.57548894  0.99418725  0.98355911    -0.71700
O126        O  0.62143906  0.97579939  0.00342732    -0.72600
O127        O  0.59860291  0.01923122  0.03139660    -0.61300
O128        O  0.59730295  0.95027487  0.95541360    -0.69700
O129        O  0.60536531  0.98417948  0.91219364    -0.69200
O130        O  0.60393538  0.05455856  0.98739209    -0.60500
O131        O  0.62811905  0.01198748  0.96146841    -0.73000
O132        O  0.58239407  0.02712791  0.93800388    -0.71800
Cu133      Cu  0.59807610  0.98362153  0.99504165     1.04600
Cu134      Cu  0.60534187  0.02059072  0.94820781     1.04300
C135        C  0.57183374  0.01350896  0.95772878     0.94500
C136        C  0.63201308  0.99147441  0.98577173     0.93700
C137        C  0.60044740  0.04772994  0.02120611     0.85800
C138        C  0.60062308  0.95666721  0.92143953     0.92100
O139        O  0.41762741  0.01466302  0.03626944    -0.71700
O140        O  0.41875568  0.94688822  0.95811397    -0.72600
O141        O  0.44080931  0.98944374  0.98804257    -0.61300
O142        O  0.39466733  0.97222008  0.00675381    -0.69700
O143        O  0.38842669  0.00940614  0.96573169    -0.69200
O144        O  0.43434044  0.02331481  0.94318233    -0.60500
O145        O  0.41105287  0.98186008  0.91584661    -0.73000
O146        O  0.41278329  0.05079253  0.99298736    -0.71800
Cu147      Cu  0.41808334  0.97950257  0.99886475     1.04600
Cu148      Cu  0.41129071  0.01749572  0.95291703     1.04300
C149        C  0.41593213  0.04340008  0.02679317     0.94500
C150        C  0.41561454  0.95408610  0.92426643     0.93700
C151        C  0.44471686  0.00894660  0.96258910     0.85800
C152        C  0.38429935  0.98864930  0.98956268     0.92100
C153        C  0.59817459  0.91224964  0.82881852     0.87800
C154        C  0.60085482  0.87986334  0.84610917    -0.52500
C155        C  0.59416768  0.87642027  0.88060902     0.10700
C156        C  0.58556884  0.90607201  0.89496379     0.21600
C157        C  0.58005091  0.91698835  0.82923678    -0.53200
C158        C  0.57343374  0.91377634  0.86395858     0.10800
C159        C  0.60463275  0.93570599  0.85735240    -0.52700
C160        C  0.59804148  0.93280008  0.89207722     0.11400
H161        H  0.60694947  0.86089469  0.83169483     0.15900
H162        H  0.58007600  0.90336617  0.92306290     0.01600
H163        H  0.57310905  0.92234075  0.80443645     0.16200
H164        H  0.61316721  0.95394304  0.85023268     0.16000
C165        C  0.59776156  0.09453408  0.11142256     0.87800
C166        C  0.60053650  0.12649591  0.09302583    -0.52500
C167        C  0.59395535  0.12896257  0.05832000     0.10700
C168        C  0.58541670  0.09899001  0.04496497     0.21600
C169        C  0.57964642  0.08981277  0.11102099    -0.53200
C170        C  0.57316137  0.09218011  0.07612904     0.10800
C171        C  0.60427944  0.07035623  0.08391890    -0.52700
C172        C  0.59791348  0.07256970  0.04905055     0.11400
H173        H  0.60657895  0.14585558  0.10680959     0.15900
H174        H  0.58006028  0.10085319  0.01665534     0.01600
H175        H  0.57260423  0.08532786  0.13596295     0.16200
H176        H  0.61268342  0.05212446  0.09174071     0.16000
N177        N  0.68712521  0.02841696  0.39847697    -0.26000
N178        N  0.67376883  0.02329935  0.41711106    -0.33900
C179        C  0.66132692  0.03108265  0.39547525     0.02300
C180        C  0.66720237  0.04157481  0.36175324     0.08400
C181        C  0.68355338  0.03962450  0.36434487    -0.04700
H182        H  0.64895834  0.02868159  0.40349858     0.09000
H183        H  0.69218893  0.04533252  0.34291284     0.10200
Cu184      Cu  0.67299000  0.00461858  0.47023700     0.44200
Cu185      Cu  0.70937685  0.01853465  0.42016380     0.42000
Cu186      Cu  0.71008359  0.98128571  0.51252510     0.43900
N187        N  0.67448477  0.98451083  0.52253381    -0.33400
N188        N  0.68797701  0.97561266  0.53832849    -0.27600
C189        C  0.68469743  0.96363714  0.57237627    -0.03800
C190        C  0.66841373  0.96520689  0.57785228     0.08500
C191        C  0.66230908  0.97852004  0.54587106     0.02300
H192        H  0.69350124  0.95472557  0.59171786     0.09900
H193        H  0.64995206  0.98366050  0.53999024     0.09000
N194        N  0.73031674  0.99193139  0.48105722    -0.34800
N195        N  0.72997337  0.00561074  0.44781552    -0.27000
C196        C  0.74496585  0.00956886  0.43539788    -0.02300
C197        C  0.75517274  0.99781493  0.46205132     0.06300
C198        C  0.74559749  0.98681936  0.49062032     0.04400
H199        H  0.74814872  0.02022579  0.40899647     0.09500
H200        H  0.74942078  0.97603405  0.51645935     0.08400
C201        C  0.59574000  0.59219561  0.82338685     0.87800
C202        C  0.60195276  0.56826865  0.85165597    -0.52500
C203        C  0.59548511  0.57130612  0.88649963     0.10700
C204        C  0.58329101  0.59850434  0.88964720     0.21600
C205        C  0.57758104  0.58828373  0.82385002    -0.53200
C206        C  0.57102002  0.59160102  0.85858078     0.10800
C207        C  0.59885187  0.62434075  0.84094119    -0.52700
C208        C  0.59226114  0.62784357  0.87552196     0.11400
H209        H  0.61034197  0.54986442  0.84437921     0.15900
H210        H  0.57786331  0.60128988  0.91779903     0.01600
H211        H  0.57055327  0.58353772  0.79899998     0.16200
H212        H  0.60520958  0.64310074  0.82669708     0.16000
C213        C  0.59686660  0.41220696  0.10876553     0.87800
C214        C  0.60290980  0.43629887  0.08050009    -0.52500
C215        C  0.59676426  0.43266128  0.04555254     0.10700
C216        C  0.58497462  0.40489361  0.04212329     0.21600
C217        C  0.57863874  0.41509648  0.10766952    -0.53200
C218        C  0.57239185  0.41122752  0.07268081     0.10800
C219        C  0.60050035  0.38010433  0.09155770    -0.52700
C220        C  0.59415183  0.37611829  0.05678998     0.11400
H221        H  0.61080193  0.45554800  0.08788832     0.15900
H222        H  0.57982066  0.40180207  0.01375639     0.01600
H223        H  0.57136204  0.41956353  0.13223430     0.16200
H224        H  0.60686109  0.36165771  0.10625725     0.16000
N225        N  0.68714599  0.48702038  0.39289127    -0.26000
N226        N  0.67376121  0.49016084  0.41204167    -0.33900
C227        C  0.66147140  0.48052342  0.39093400     0.02300
C228        C  0.66741277  0.47085386  0.35692838     0.08400
C229        C  0.68369841  0.47524221  0.35889020    -0.04700
H230        H  0.64910241  0.48135137  0.39940445     0.09000
H231        H  0.69233495  0.47099763  0.33699831     0.10200
Cu232      Cu  0.67254767  0.50937274  0.46489924     0.44200
Cu233      Cu  0.70919918  0.50081145  0.41377419     0.42000
Cu234      Cu  0.70879266  0.53828570  0.50615828     0.43900
N235        N  0.67343420  0.53072686  0.51660272    -0.33400
N236        N  0.68664484  0.54150262  0.53207790    -0.27600
C237        C  0.68305706  0.55371979  0.56580680    -0.03800
C238        C  0.66685292  0.55040402  0.57137486     0.08500
C239        C  0.66112070  0.53577178  0.53982754     0.02300
H240        H  0.69160202  0.56395206  0.58485663     0.09900
H241        H  0.64893070  0.52902329  0.53421712     0.09000
N242        N  0.72925686  0.53098205  0.47438903    -0.34800
N243        N  0.72941979  0.51734827  0.44111041    -0.27000
C244        C  0.74457625  0.51550455  0.42894514    -0.02300
C245        C  0.75432652  0.52861212  0.45579181     0.06300
C246        C  0.74430071  0.53815090  0.48420748     0.04400
H247        H  0.74821668  0.50492467  0.40283800     0.09500
H248        H  0.74768276  0.54894610  0.51036562     0.08400
O249        O  0.09610571  0.48558241  0.44357624    -0.71700
O250        O  0.09461002  0.55438332  0.51968951    -0.72600
O251        O  0.11855286  0.53063889  0.46985918    -0.61300
O252        O  0.07309408  0.50898365  0.49358594    -0.69700
O253        O  0.08122732  0.47650805  0.53837215    -0.69200
O254        O  0.12637488  0.49495834  0.51123969    -0.60500
O255        O  0.10377632  0.52103969  0.56221130    -0.73000
O256        O  0.10267064  0.45060069  0.48696339    -0.71800
Cu257      Cu  0.09540484  0.52110437  0.48006834     1.04600
Cu258      Cu  0.10392946  0.48465403  0.52618666     1.04300
C259        C  0.09869873  0.45723592  0.45340787     0.94500
C260        C  0.09849184  0.54822945  0.55335833     0.93700
C261        C  0.12962087  0.51580601  0.48677382     0.85800
C262        C  0.07012739  0.48961773  0.51993206     0.92100
O263        O  0.91758170  0.48897353  0.44256641    -0.71700
O264        O  0.91848887  0.55786524  0.51911426    -0.72600
O265        O  0.94047194  0.51362197  0.49224292    -0.61300
O266        O  0.89474616  0.53308160  0.46915347    -0.69700
O267        O  0.88729480  0.49701472  0.51051636    -0.69200
O268        O  0.93272318  0.48078642  0.53711206    -0.60500
O269        O  0.90964186  0.52397530  0.56149189    -0.73000
O270        O  0.91141320  0.45383384  0.48615382    -0.71800
Cu271      Cu  0.91799828  0.52463582  0.47916363     1.04600
Cu272      Cu  0.90987990  0.48778774  0.52531155     1.04300
C273        C  0.91517596  0.46053922  0.45247726     0.94500
C274        C  0.91468381  0.55138715  0.55280935     0.93700
C275        C  0.94367148  0.49437559  0.51851563     0.85800
C276        C  0.88383208  0.51761178  0.48593525     0.92100
C277        C  0.91571369  0.59581759  0.64567231     0.87800
C278        C  0.90985305  0.57206787  0.61676244    -0.52500
C279        C  0.91696527  0.57499855  0.58259433     0.10700
C280        C  0.92935615  0.60188859  0.58067849     0.21600
C281        C  0.93385619  0.59147860  0.64694954    -0.53200
C282        C  0.94102408  0.59465968  0.61283664     0.10800
C283        C  0.91313419  0.62804977  0.62786994    -0.52700
C284        C  0.92034473  0.63137079  0.59394007     0.11400
H285        H  0.90123938  0.55379576  0.62318876     0.15900
H286        H  0.93528539  0.60457342  0.55306665     0.01600
H287        H  0.94041452  0.58646018  0.67241606     0.16200
H288        H  0.90668626  0.64696186  0.64150695     0.16000
C289        C  0.91709702  0.41334914  0.36215345     0.87800
C290        C  0.91134970  0.43866794  0.38919508    -0.52500
C291        C  0.91720757  0.43553428  0.42449704     0.10700
C292        C  0.92841414  0.40704057  0.42946625     0.21600
C293        C  0.93533449  0.41501302  0.36378677    -0.53200
C294        C  0.94127456  0.41174857  0.39911998     0.10800
C295        C  0.91273619  0.38202944  0.38047542    -0.52700
C296        C  0.91877581  0.37851110  0.41559197     0.11400
H297        H  0.90381031  0.45814585  0.38081360     0.15900
H298        H  0.93334121  0.40438502  0.45811257     0.01600
H299        H  0.94283899  0.41845342  0.33935292     0.16200
H300        H  0.90616683  0.36361282  0.36619702     0.16000
N301        N  0.82730685  0.47871890  0.07499666    -0.26000
N302        N  0.84059098  0.48338138  0.05583690    -0.33900
C303        C  0.85312003  0.47521695  0.07705127     0.02300
C304        C  0.84743325  0.46492967  0.11106275     0.08400
C305        C  0.83106363  0.46742149  0.10903306    -0.04700
H306        H  0.86544900  0.47730414  0.06857808     0.09000
H307        H  0.82254532  0.46210750  0.13085302     0.10200
Cu308      Cu  0.84138866  0.50227448  0.00261254     0.44200
Cu309      Cu  0.80479455  0.48965310  0.05457414     0.42000
Cu310      Cu  0.80417691  0.52675729  0.96274146     0.43900
N311        N  0.83954334  0.52331703  0.95070861    -0.33400
N312        N  0.82588962  0.53245063  0.93593087    -0.27600
C313        C  0.82873505  0.54535976  0.90220763    -0.03800
C314        C  0.84493487  0.54423896  0.89579979     0.08500
C315        C  0.85144791  0.53014838  0.92690436     0.02300
H316        H  0.81969751  0.55474029  0.88382084     0.09900
H317        H  0.86389780  0.52516266  0.93190282     0.09000
N318        N  0.78402051  0.51843613  0.99480740    -0.34800
N319        N  0.78413421  0.50480134  0.02806906    -0.27000
C320        C  0.76906472  0.50282167  0.04084371    -0.02300
C321        C  0.75913465  0.51588834  0.01432401     0.06300
C322        C  0.76893096  0.52550100  0.98555783     0.04400
H323        H  0.76562880  0.49253210  0.06728576     0.09500
H324        H  0.76537921  0.53659554  0.95969770     0.08400
C325        C  0.91729076  0.91435206  0.64140621     0.87800
C326        C  0.91483113  0.88209456  0.62361259    -0.52500
C327        C  0.92184200  0.87903761  0.58944818     0.10700
C328        C  0.93054877  0.90882395  0.57591895     0.21600
C329        C  0.93540109  0.91924122  0.64205476    -0.53200
C330        C  0.94236551  0.91634145  0.60768497     0.10800
C331        C  0.91107026  0.93800271  0.61277045    -0.52700
C332        C  0.91798184  0.93534845  0.57833079     0.11400
H333        H  0.90862121  0.86294133  0.63745360     0.15900
H334        H  0.93632631  0.90634952  0.54810646     0.01600
H335        H  0.94209625  0.92427979  0.66731839     0.16200
H336        H  0.90238743  0.95600893  0.61955833     0.16000
C337        C  0.91832461  0.09688447  0.35778891     0.87800
C338        C  0.91403020  0.12819190  0.37619261    -0.52500
C339        C  0.92000875  0.13150385  0.41140762     0.10700
C340        C  0.92953999  0.10289387  0.42523726     0.21600
C341        C  0.93656256  0.09504701  0.35960990    -0.53200
C342        C  0.94244608  0.09817184  0.39502379     0.10800
C343        C  0.91244482  0.07154352  0.38471136    -0.52700
C344        C  0.91824046  0.07456718  0.42008483     0.11400
H345        H  0.90746819  0.14665455  0.36201539     0.15900
H346        H  0.93441603  0.10541705  0.45395370     0.01600
H347        H  0.94410127  0.09158092  0.33525250     0.16200
H348        H  0.90484369  0.05216322  0.37622297     0.16000
N349        N  0.82963364  0.01510340  0.07587478    -0.26000
N350        N  0.84294714  0.01032991  0.05689356    -0.33900
C351        C  0.85536868  0.02059595  0.07716084     0.02300
C352        C  0.84957820  0.03237880  0.11036074     0.08400
C353        C  0.83326110  0.02856804  0.10885213    -0.04700
H354        H  0.86769689  0.01916855  0.06851711     0.09000
H355        H  0.82468459  0.03473498  0.13022525     0.10200
Cu356      Cu  0.84390780  0.98934485  0.00482282     0.44200
Cu357      Cu  0.80724875  0.00242620  0.05614066     0.42000
Cu358      Cu  0.80688895  0.96273659  0.96578418     0.43900
N359        N  0.84220065  0.96758028  0.95332767    -0.33400
N360        N  0.82862586  0.95760125  0.93888067    -0.27600
C361        C  0.83147693  0.94546147  0.90476824    -0.03800
C362        C  0.84759767  0.94795991  0.89775836     0.08500
C363        C  0.85405320  0.96208228  0.92891659     0.02300
H364        H  0.82245262  0.93618414  0.88623991     0.09900
H365        H  0.86638623  0.96848986  0.93326953     0.09000
N366        N  0.78658587  0.97297828  0.99653963    -0.34800
N367        N  0.78663903  0.98752717  0.02924040    -0.27000
C368        C  0.77149422  0.99140649  0.04077836    -0.02300
C369        C  0.76156452  0.97865255  0.01404644     0.06300
C370        C  0.77144379  0.96722071  0.98642065     0.04400
H371        H  0.76800655  0.00302534  0.06636026     0.09500
H372        H  0.76791742  0.95603225  0.96059500     0.08400
O373        O  0.10280148  0.05406327  0.48881908    -0.71700
O374        O  0.10432797  0.98422624  0.56467104    -0.72600
O375        O  0.12696680  0.01169096  0.51510991    -0.61300
O376        O  0.08129126  0.02668118  0.53873159    -0.69700
O377        O  0.07433662  0.99350980  0.49352042    -0.69200
O378        O  0.12027385  0.97514356  0.47365242    -0.60500
O379        O  0.09622222  0.95001476  0.52189945    -0.73000
O380        O  0.09751148  0.01844879  0.44519608    -0.71800
Cu381      Cu  0.10422018  0.02032745  0.52835051     1.04600
Cu382      Cu  0.09694530  0.98303511  0.48195526     1.04300
C383        C  0.09940320  0.04702663  0.45503894     0.94500
C384        C  0.09963084  0.95663982  0.55573122     0.93700
C385        C  0.13083858  0.99086215  0.49117517     0.85800
C386        C  0.07071085  0.01278903  0.51943010     0.92100
O387        O  0.94107085  0.99680620  0.48796287    -0.71700
O388        O  0.89544230  0.97741880  0.46470034    -0.72600
O389        O  0.91833070  0.02119501  0.43819271    -0.61300
O390        O  0.91912997  0.95251871  0.51485874    -0.69700
O391        O  0.91036685  0.98632665  0.55736476    -0.69200
O392        O  0.91231560  0.05642982  0.48175328    -0.60500
O393        O  0.88820228  0.01358756  0.50612613    -0.73000
O394        O  0.93338350  0.02960094  0.53292442    -0.71800
Cu395      Cu  0.91866616  0.98568986  0.47486357     1.04600
Cu396      Cu  0.91066519  0.02257441  0.52106539     1.04300
C397        C  0.94427092  0.01614973  0.51412104     0.94500
C398        C  0.88465572  0.99329698  0.48130039     0.93700
C399        C  0.91604391  0.04964322  0.44807501     0.85800
C400        C  0.91543272  0.95895659  0.54861823     0.92100
C401        C  0.09704611  0.59336832  0.64562524     0.87800
C402        C  0.10001739  0.62536206  0.62751943    -0.52500
C403        C  0.09305626  0.62863247  0.59335107     0.10700
C404        C  0.08389664  0.59926926  0.58015462     0.21600
C405        C  0.07886611  0.58956937  0.64640158    -0.53200
C406        C  0.07195152  0.59267025  0.61204313     0.10800
C407        C  0.10291052  0.56922163  0.61723412    -0.52700
C408        C  0.09605824  0.57203055  0.58283781     0.11400
H409        H  0.10650383  0.64422378  0.64117836     0.15900
H410        H  0.07817886  0.60188219  0.55233137     0.01600
H411        H  0.07209522  0.58500857  0.67174126     0.16200
H412        H  0.11136036  0.55082494  0.62414775     0.16000
C413        C  0.09573813  0.41133812  0.36254333     0.87800
C414        C  0.09930167  0.37929516  0.37989371    -0.52500
C415        C  0.09332017  0.37579642  0.41510648     0.10700
C416        C  0.08448825  0.40495792  0.42996748     0.21600
C417        C  0.07758859  0.41484529  0.36470613    -0.53200
C418        C  0.07167419  0.41150566  0.40007319     0.10800
C419        C  0.10227725  0.43550327  0.39007326    -0.52700
C420        C  0.09645747  0.43232508  0.42545167     0.11400
H421        H  0.10547133  0.36061622  0.36512501     0.15900
H422        H  0.07959245  0.40226423  0.45867503     0.01600
H423        H  0.07010903  0.41936704  0.34054329     0.16200
H424        H  0.11018693  0.45451292  0.38190123     0.16000
N425        N  0.17212700  0.53643479  0.95691557    -0.26000
N426        N  0.18572420  0.54582183  0.94192742    -0.33900
C427        C  0.18282550  0.55721749  0.90746765     0.02300
C428        C  0.16666622  0.55482004  0.90086568     0.08400
C429        C  0.16023415  0.54157831  0.93260596    -0.04700
H430        H  0.19184035  0.56587837  0.88841549     0.09000
H431        H  0.14789620  0.53541627  0.93740222     0.10200
Cu432      Cu  0.20753406  0.54066998  0.96871175     0.44200
Cu433      Cu  0.17036047  0.51531808  0.00863031     0.42000
Cu434      Cu  0.20678474  0.50149040  0.05962745     0.43900
N435        N  0.22774765  0.53020842  0.99988311    -0.33400
N436        N  0.22750231  0.51594226  0.03277406    -0.27600
C437        C  0.24258178  0.51145756  0.04437475    -0.03800
C438        C  0.25270558  0.52349202  0.01750550     0.08500
C439        C  0.24298102  0.53515886  0.98972060     0.02300
H440        H  0.24589074  0.49968711  0.06996910     0.09900
H441        H  0.24667711  0.54576095  0.96364674     0.09000
N442        N  0.18440061  0.48846465  0.07903703    -0.34800
N443        N  0.17113874  0.49356452  0.06009225    -0.27000
C444        C  0.15865270  0.48313826  0.08006993    -0.02300
C445        C  0.16435733  0.47090526  0.11305722     0.06300
C446        C  0.18068111  0.47461354  0.11174561     0.04400
H447        H  0.14633893  0.48494130  0.07147839     0.09500
H448        H  0.18918358  0.46830075  0.13315846     0.08400
C449        C  0.09780124  0.91226091  0.64843542     0.87800
C450        C  0.10390749  0.93605405  0.61983206    -0.52500
C451        C  0.09725044  0.93290981  0.58527169     0.10700
C452        C  0.08506417  0.90573963  0.58258836     0.21600
C453        C  0.07962143  0.91623546  0.64846373    -0.53200
C454        C  0.07294294  0.91284474  0.61387012     0.10800
C455        C  0.10078597  0.88002405  0.63095274    -0.52700
C456        C  0.09403877  0.87646296  0.59656722     0.11400
H457        H  0.11229520  0.95458265  0.62675489     0.15900
H458        H  0.07952172  0.90289658  0.55459637     0.01600
H459        H  0.07270039  0.92135396  0.67341577     0.16200
H460        H  0.10714331  0.86127054  0.64511376     0.16000
C461        C  0.09678470  0.09330331  0.36419392     0.87800
C462        C  0.10276554  0.06835028  0.39137757    -0.52500
C463        C  0.09708187  0.07173288  0.42682664     0.10700
C464        C  0.08574222  0.10004286  0.43174335     0.21600
C465        C  0.07857050  0.09138484  0.36638152    -0.53200
C466        C  0.07275916  0.09494191  0.40182010     0.10800
C467        C  0.10110763  0.12485005  0.38193451    -0.52700
C468        C  0.09522183  0.12854423  0.41720846     0.11400
H469        H  0.11036321  0.04894057  0.38301780     0.15900
H470        H  0.08093060  0.10290090  0.46050322     0.01600
H471        H  0.07097772  0.08776479  0.34218638     0.16200
H472        H  0.10758530  0.14320028  0.36726291     0.16000
N473        N  0.18738374  0.02481163  0.07901790    -0.26000
N474        N  0.17387004  0.01732508  0.06229263    -0.33900
C475        C  0.16163026  0.02489696  0.08474756     0.02300
C476        C  0.16777010  0.03773775  0.11699258     0.08400
C477        C  0.18409968  0.03738168  0.11268426    -0.04700
H478        H  0.14921196  0.02088073  0.07825967     0.09000
H479        H  0.19293131  0.04506558  0.13268289     0.10200
Cu480      Cu  0.17254938  0.99646501  0.01022978     0.44200
Cu481      Cu  0.20953872  0.01575876  0.05590214     0.42000
Cu482      Cu  0.20952664  0.97519299  0.96591056     0.43900
N483        N  0.17390570  0.97731489  0.95723160    -0.33400
N484        N  0.18743292  0.96951799  0.94071307    -0.27600
C485        C  0.18424576  0.95899840  0.90600650    -0.03800
C486        C  0.16796986  0.96031078  0.90076934     0.08500
C487        C  0.16176271  0.97198683  0.93362256     0.02300
H488        H  0.19312146  0.95151979  0.88596800     0.09900
H489        H  0.14938544  0.97682789  0.93973237     0.09000
N490        N  0.22992167  0.98540184  0.99643265    -0.34800
N491        N  0.22992631  0.00051163  0.02877231    -0.27000
C492        C  0.24501578  0.00344073  0.04088426    -0.02300
C493        C  0.25487563  0.98946331  0.01494533     0.06300
C494        C  0.24502044  0.97829390  0.98713827     0.04400
H495        H  0.24849322  0.01478880  0.06663184     0.09500
H496        H  0.24852919  0.96599768  0.96200419     0.08400
C497        C  0.11981287  0.07700806  0.26543567     0.18300
C498        C  0.12759516  0.10107353  0.24594017    -0.10800
C499        C  0.13775724  0.09381730  0.21617148    -0.11700
C500        C  0.14019086  0.06246510  0.20589703     0.19900
C501        C  0.13231975  0.03842286  0.22523954    -0.13700
C502        C  0.12216289  0.04567589  0.25498383    -0.12000
C503        C  0.15060849  0.05487694  0.17530019     0.00800
C504        C  0.15884386  0.04761906  0.14910660    -0.32000
C505        C  0.11022928  0.08421301  0.29760118     0.02200
C506        C  0.10334526  0.08914184  0.32656263    -0.33700
H507        H  0.12595485  0.12537156  0.25403159     0.13300
H508        H  0.14376627  0.11257457  0.20133591     0.13100
H509        H  0.13410063  0.01410499  0.21745733     0.12900
H510        H  0.11630562  0.02688735  0.27008980     0.12000
C511        C  0.12215298  0.92721887  0.74620022     0.18300
C512        C  0.12980718  0.90270048  0.76508364    -0.10800
C513        C  0.13947084  0.90914713  0.79599364    -0.11700
C514        C  0.14155034  0.94015242  0.80810643     0.19900
C515        C  0.13390232  0.96467033  0.78919753    -0.13700
C516        C  0.12424134  0.95822495  0.75829852    -0.12000
C517        C  0.15135402  0.94678858  0.84016374     0.00800
C518        C  0.15921482  0.95265975  0.86748717    -0.32000
C519        C  0.11259681  0.92076382  0.71370076     0.02200
C520        C  0.10530659  0.91625556  0.68516902    -0.33700
H521        H  0.12835672  0.87864956  0.75583025     0.13300
H522        H  0.14531277  0.89001167  0.81040711     0.13100
H523        H  0.13541188  0.98874001  0.79832518     0.12900
H524        H  0.11846392  0.97737822  0.74377548     0.12000
C525        C  0.09484304  0.28523733  0.45012752     0.18300
C526        C  0.10948904  0.26949048  0.44907500    -0.10800
C527        C  0.10995325  0.23663178  0.44953777    -0.11700
C528        C  0.09576918  0.21929720  0.45106937     0.19900
C529        C  0.08115995  0.23505932  0.45344892    -0.13700
C530        C  0.08069593  0.26790781  0.45296922    -0.12000
C531        C  0.09604890  0.18573528  0.44561112     0.00800
C532        C  0.09589035  0.15862117  0.43576675    -0.32000
C533        C  0.09424571  0.31871165  0.44396643     0.02200
C534        C  0.09378740  0.34574461  0.43381130    -0.33700
H535        H  0.12050224  0.28256435  0.44641565     0.13300
H536        H  0.12130991  0.22477852  0.44719997     0.13100
H537        H  0.07009855  0.22196696  0.45415474     0.12900
H538        H  0.06928699  0.27973527  0.45333902     0.12000
C539        C  0.13685493  0.44161753  0.20024458     0.18300
C540        C  0.12170954  0.45493634  0.20449491    -0.10800
C541        C  0.11234407  0.44723880  0.23553950    -0.11700
C542        C  0.11809475  0.42616729  0.26236614     0.19900
C543        C  0.13316195  0.41260177  0.25788441    -0.13700
C544        C  0.14252223  0.42029998  0.22686989    -0.12000
C545        C  0.10898123  0.41969141  0.29550853     0.00800
C546        C  0.10233743  0.41524139  0.32489785    -0.32000
C547        C  0.14676323  0.45059761  0.16923543     0.02200
C548        C  0.15499571  0.45919643  0.14360101    -0.33700
H549        H  0.11724742  0.47153734  0.18411785     0.13300
H550        H  0.10075509  0.45802754  0.23890103     0.13100
H551        H  0.13775835  0.39645480  0.27863328     0.12900
H552        H  0.15424358  0.40996584  0.22390441     0.12000
C553        C  0.09277872  0.78567236  0.56217497     0.18300
C554        C  0.07878105  0.76928801  0.57090402    -0.10800
C555        C  0.07855288  0.73645553  0.57015937    -0.11700
C556        C  0.09232053  0.71967818  0.56066239     0.19900
C557        C  0.10620337  0.73604918  0.55077563    -0.13700
C558        C  0.10643261  0.76895601  0.55152354    -0.12000
C559        C  0.09260869  0.68599994  0.56532411     0.00800
C560        C  0.09277823  0.65875951  0.57475586    -0.32000
C561        C  0.09348505  0.81918425  0.56811505     0.02200
C562        C  0.09382645  0.84626944  0.57812704    -0.33700
H563        H  0.06819991  0.78186050  0.57961845     0.13300
H564        H  0.06780667  0.72414364  0.57833974     0.13100
H565        H  0.11699154  0.72340026  0.54383841     0.12900
H566        H  0.11738445  0.78127686  0.54512506     0.12000
C567        C  0.14090957  0.57255648  0.80667089     0.18300
C568        C  0.12757821  0.59224406  0.80861513    -0.10800
C569        C  0.11804373  0.59681273  0.77703448    -0.11700
C570        C  0.12179750  0.58165379  0.74341214     0.19900
C571        C  0.13512701  0.56197001  0.74147337    -0.13700
C572        C  0.14465685  0.55740668  0.77303525    -0.12000
C573        C  0.11213145  0.58643589  0.71073693     0.00800
C574        C  0.10474368  0.58992447  0.68217199    -0.32000
C575        C  0.15054978  0.56739903  0.83933203     0.02200
C576        C  0.15824793  0.56226062  0.86708670    -0.33700
H577        H  0.12453967  0.60399414  0.83455024     0.13300
H578        H  0.10778226  0.61210258  0.77881805     0.13100
H579        H  0.13814635  0.55016332  0.71558024     0.12900
H580        H  0.15489231  0.54206239  0.77125013     0.12000
C581        C  0.02389918  0.02835350  0.53473466     0.18300
C582        C  0.01619956  0.04946591  0.51090739    -0.10800
C583        C  0.99963688  0.05042767  0.51016428    -0.11700
C584        C  0.99090196  0.03026789  0.53327145     0.19900
C585        C  0.99861276  0.01004659  0.55813712    -0.13700
C586        C  0.01516518  0.00907776  0.55886663    -0.12000
C587        C  0.97415922  0.02770626  0.52852413     0.00800
C588        C  0.96037752  0.02300036  0.52247726    -0.32000
C589        C  0.04063619  0.02422908  0.53172535     0.02200
C590        C  0.05447007  0.01918877  0.52681043    -0.33700
H591        H  0.02297000  0.06425364  0.49204510     0.13300
H592        H  0.99366878  0.06591755  0.49070099     0.13100
H593        H  0.99184705  0.99419908  0.57577866     0.12900
H594        H  0.02112315  0.99253102  0.57709354     0.12000
C595        C  0.02426888  0.09477773  0.41421476     0.18300
C596        C  0.01572514  0.06688971  0.40854259    -0.10800
C597        C  0.99904960  0.06733931  0.40709505    -0.11700
C598        C  0.99076542  0.09568243  0.41130133     0.19900
C599        C  0.99929743  0.12349281  0.41756025    -0.13700
C600        C  0.01597531  0.12304386  0.41900306    -0.12000
C601        C  0.97361040  0.09642646  0.40767503     0.00800
C602        C  0.95935326  0.09719759  0.40289995    -0.32000
C603        C  0.04149429  0.09462933  0.41312754     0.02200
C604        C  0.05582875  0.09467186  0.40961739    -0.33700
H605        H  0.02195789  0.04488294  0.40470533     0.13300
H606        H  0.99263228  0.04566105  0.40220674     0.13100
H607        H  0.99307536  0.14558529  0.42073342     0.12900
H608        H  0.02240321  0.14480385  0.42321812     0.12000
C609        C  0.89595281  0.08100882  0.25785127     0.18300
C610        C  0.88185789  0.09733733  0.25014431    -0.10800
C611        C  0.87243200  0.08868485  0.21960724    -0.11700
C612        C  0.87705065  0.06362960  0.19668705     0.19900
C613        C  0.89125957  0.04758734  0.20409172    -0.13700
C614        C  0.90068195  0.05623525  0.23462683    -0.12000
C615        C  0.86704093  0.05377413  0.16621776     0.00800
C616        C  0.85883925  0.04452356  0.14085600    -0.32000
C617        C  0.90499947  0.08838272  0.29085199     0.02200
C618        C  0.91168029  0.09312449  0.32013263    -0.33700
H619        H  0.87802697  0.11638389  0.26808924     0.13300
H620        H  0.86145620  0.10121239  0.21418950     0.13100
H621        H  0.89492992  0.02813942  0.18659580     0.12900
H622        H  0.91148991  0.04329995  0.24048211     0.12000
C623        C  0.02452936  0.92076110  0.60141453     0.18300
C624        C  0.01595533  0.93627005  0.62954791    -0.10800
C625        C  0.99927910  0.93699069  0.62856074    -0.11700
C626        C  0.99100258  0.92220117  0.59943233     0.19900
C627        C  0.99957940  0.90726536  0.57085073    -0.13700
C628        C  0.01627326  0.90655383  0.57183091    -0.12000
C629        C  0.97377041  0.92109172  0.59997024     0.00800
C630        C  0.95941663  0.91927381  0.60235451    -0.32000
C631        C  0.04169587  0.91839026  0.60385365     0.02200
C632        C  0.05596708  0.91591983  0.60757881    -0.33700
H633        H  0.02214965  0.94736926  0.65257263     0.13300
H634        H  0.99283638  0.94860994  0.65085347     0.13100
H635        H  0.99336394  0.89568803  0.54819162     0.12900
H636        H  0.02271745  0.89446394  0.54989959     0.12000
C637        C  0.89235041  0.92311873  0.73959022     0.18300
C638        C  0.89510356  0.90462383  0.77133567    -0.10800
C639        C  0.88545878  0.90807428  0.80302259    -0.11700
C640        C  0.87301806  0.92997713  0.80302746     0.19900
C641        C  0.87021796  0.94829634  0.77118868    -0.13700
C642        C  0.87985103  0.94485476  0.73955588    -0.12000
C643        C  0.86348948  0.93455160  0.83605591     0.00800
C644        C  0.85591807  0.93986719  0.86400426    -0.32000
C645        C  0.90214544  0.91969559  0.70680129     0.02200
C646        C  0.90955896  0.91728347  0.67805357    -0.33700
H647        H  0.90470267  0.88766892  0.77162064     0.13300
H648        H  0.88776492  0.89386766  0.82755168     0.13100
H649        H  0.86067618  0.96537633  0.77092637     0.12900
H650        H  0.87758443  0.95920886  0.71509620     0.12000
C651        C  0.02323788  0.41351214  0.41267482     0.18300
C652        C  0.01470418  0.43930855  0.42652635    -0.10800
C653        C  0.99799849  0.43905021  0.42630003    -0.11700
C654        C  0.98971898  0.41299865  0.41223753     0.19900
C655        C  0.99827100  0.38721399  0.39852711    -0.13700
C656        C  0.01493931  0.38747667  0.39873814    -0.12000
C657        C  0.97251426  0.41300723  0.41044870     0.00800
C658        C  0.95820426  0.41252076  0.40666060    -0.32000
C659        C  0.04045148  0.41392960  0.41140178     0.02200
C660        C  0.05477277  0.41321734  0.40782921    -0.33700
H661        H  0.02094360  0.45966606  0.43720799     0.13300
H662        H  0.99155557  0.45923072  0.43679214     0.13100
H663        H  0.99205333  0.36702563  0.38731394     0.12900
H664        H  0.02136228  0.36747255  0.38768785     0.12000
C665        C  0.91888706  0.22161748  0.44795088     0.18300
C666        C  0.90446313  0.23775100  0.45243313    -0.10800
C667        C  0.90426824  0.27064638  0.45305952    -0.11700
C668        C  0.91849834  0.28761278  0.44922277     0.19900
C669        C  0.93296304  0.27142979  0.44611195    -0.13700
C670        C  0.93315753  0.23858237  0.44548296    -0.12000
C671        C  0.91816104  0.32123773  0.44398771     0.00800
C672        C  0.91824500  0.34841406  0.43426314    -0.32000
C673        C  0.91893056  0.18816759  0.44138866     0.02200
C674        C  0.91925718  0.16126925  0.43070759    -0.33700
H675        H  0.89332537  0.22497019  0.45392756     0.13300
H676        H  0.89298397  0.28281528  0.45503134     0.13100
H677        H  0.94402891  0.28420521  0.44265750     0.12900
H678        H  0.94436852  0.22646095  0.44154965     0.12000
C679        C  0.89390582  0.42738398  0.26296302     0.18300
C680        C  0.90095436  0.43739597  0.22948494    -0.10800
C681        C  0.89143094  0.44419576  0.19843252    -0.11700
C682        C  0.87484058  0.44103156  0.20078006     0.19900
C683        C  0.86782419  0.43088056  0.23421253    -0.13700
C684        C  0.87733348  0.42408476  0.26521228    -0.12000
C685        C  0.86498845  0.44869331  0.16916795     0.00800
C686        C  0.85679825  0.45569105  0.14279271    -0.32000
C687        C  0.90348802  0.42139697  0.29549904     0.02200
C688        C  0.91039592  0.41716890  0.32458440    -0.33700
H689        H  0.91374423  0.44016858  0.22749477     0.13300
H690        H  0.89697819  0.45210900  0.17272801     0.13100
H691        H  0.85502156  0.42843105  0.23638071     0.12900
H692        H  0.87175467  0.41649958  0.29104079     0.12000
C693        C  0.02325608  0.58784034  0.60339145     0.18300
C694        C  0.01482068  0.60405451  0.57562815    -0.10800
C695        C  0.99811903  0.60427936  0.57590963    -0.11700
C696        C  0.98968750  0.58830500  0.60396095     0.19900
C697        C  0.99812336  0.57165484  0.63136210    -0.13700
C698        C  0.01481884  0.57142053  0.63107358    -0.12000
C699        C  0.97246244  0.58986816  0.60542440     0.00800
C700        C  0.95811284  0.59184063  0.60795358    -0.32000
C701        C  0.04049711  0.58894603  0.60434875     0.02200
C702        C  0.05486318  0.59045021  0.60678772    -0.33700
H703        H  0.02115120  0.61688697  0.55407143     0.13300
H704        H  0.99178603  0.61727983  0.55455298     0.13100
H705        H  0.99179968  0.55917647  0.65321960     0.12900
H706        H  0.02114678  0.55877152  0.65271653     0.12000
C707        C  0.92305156  0.78795085  0.55730191     0.18300
C708        C  0.90923972  0.77173302  0.54666479    -0.10800
C709        C  0.90888126  0.73884370  0.54763485    -0.11700
C710        C  0.92233672  0.72199975  0.55924764     0.19900
C711        C  0.93627743  0.73822295  0.56874929    -0.13700
C712        C  0.93663489  0.77104232  0.56778939    -0.12000
C713        C  0.92144546  0.68853315  0.56530081     0.00800
C714        C  0.92090088  0.66148499  0.57538423    -0.32000
C715        C  0.92279638  0.82162976  0.56175115     0.02200
C716        C  0.92247585  0.84888729  0.57102437    -0.33700
H717        H  0.89859100  0.78449668  0.53897398     0.13300
H718        H  0.89796776  0.72664062  0.54063511     0.13100
H719        H  0.94670277  0.72553449  0.57821507     0.12900
H720        H  0.94731562  0.78324793  0.57656709     0.12000
C721        C  0.87132948  0.56999146  0.80517322     0.18300
C722        C  0.88545333  0.55315146  0.79960695    -0.10800
C723        C  0.89512777  0.55964792  0.76872104    -0.11700
C724        C  0.89074331  0.58305080  0.74325985     0.19900
C725        C  0.87668948  0.60012700  0.74898581    -0.13700
C726        C  0.86699962  0.59362013  0.77991367    -0.12000
C727        C  0.90031293  0.58861443  0.71050891     0.00800
C728        C  0.90776140  0.59229610  0.68199484    -0.32000
C729        C  0.86126404  0.56252051  0.83653719     0.02200
C730        C  0.85341589  0.55482744  0.86326039    -0.33700
H731        H  0.88890546  0.53482564  0.81895146     0.13300
H732        H  0.90592977  0.54619769  0.76447366     0.13100
H733        H  0.87315158  0.61817549  0.72937078     0.12900
H734        H  0.85609742  0.60677681  0.78393665     0.12000
C735        C  0.02338965  0.47666388  0.54068748     0.18300
C736        C  0.01478026  0.45244158  0.52369644    -0.10800
C737        C  0.99818991  0.45366134  0.52311192    -0.11700
C738        C  0.99029978  0.47911420  0.53946078     0.19900
C739        C  0.99889373  0.50250921  0.55802986    -0.13700
C740        C  0.01546188  0.50127433  0.55865810    -0.12000
C741        C  0.97359106  0.48295259  0.53399543     0.00800
C742        C  0.95983885  0.48784845  0.52732584    -0.32000
C743        C  0.04022275  0.47842734  0.53582916     0.02200
C744        C  0.05403878  0.48265132  0.52914760    -0.33700
H745        H  0.02087902  0.43345035  0.50957631     0.13300
H746        H  0.99156974  0.43553311  0.50864373     0.13100
H747        H  0.99282825  0.52232236  0.57056403     0.12900
H748        H  0.02209535  0.52019141  0.57161439     0.12000
C749        C  0.83632677  0.52804647  0.46515273     0.18300
C750        C  0.82807788  0.50263551  0.44950541    -0.10800
C751        C  0.81148746  0.50368963  0.44594812    -0.11700
C752        C  0.80302176  0.53015647  0.45801761     0.19900
C753        C  0.81129077  0.55576540  0.47315351    -0.13700
C754        C  0.82788997  0.55471225  0.47671534    -0.12000
C755        C  0.78585217  0.53052528  0.45607907     0.00800
C756        C  0.77146955  0.53004662  0.45546865    -0.32000
C757        C  0.85330983  0.52609466  0.47086810     0.02200
C758        C  0.86736655  0.52310674  0.47704000    -0.33700
H759        H  0.83443933  0.48183992  0.44058999     0.13300
H760        H  0.80524596  0.48370241  0.43428563     0.13100
H761        H  0.80489227  0.57633976  0.48267851     0.12900
H762        H  0.83410831  0.57446278  0.48898475     0.12000
C763        C  0.62092503  0.42995932  0.20608701     0.18300
C764        C  0.61442707  0.43052065  0.24219113    -0.10800
C765        C  0.62404110  0.43824096  0.27280302    -0.11700
C766        C  0.64017956  0.44542751  0.26743108     0.19900
C767        C  0.64664483  0.44495649  0.23131335    -0.13700
C768        C  0.63704467  0.43724845  0.20074524    -0.12000
C769        C  0.65007789  0.45357536  0.29883318     0.00800
C770        C  0.65823806  0.46097814  0.32512927    -0.32000
C771        C  0.61114885  0.42227448  0.17431687     0.02200
C772        C  0.60394886  0.41683696  0.14587569    -0.33700
H773        H  0.60197833  0.42504857  0.24664102     0.13300
H774        H  0.61889520  0.43864220  0.30062126     0.13100
H775        H  0.65907809  0.45057355  0.22679677     0.12900
H776        H  0.64218795  0.43700783  0.17291617     0.12000
C777        C  0.63889471  0.57061886  0.66145442     0.18300
C778        C  0.62939864  0.54620311  0.67538213    -0.10800
C779        C  0.61959827  0.55123376  0.70644245    -0.11700
C780        C  0.61922593  0.58073672  0.72367637     0.19900
C781        C  0.62854636  0.60529238  0.70943887    -0.13700
C782        C  0.63835425  0.60025709  0.67835857    -0.12000
C783        C  0.60993136  0.58532317  0.75704503     0.00800
C784        C  0.60297777  0.58863940  0.78628278    -0.32000
C785        C  0.64929758  0.56501401  0.63014299     0.02200
C786        C  0.65769398  0.55908367  0.60370441    -0.33700
H787        H  0.62970566  0.52319272  0.66248329     0.13300
H788        H  0.61250184  0.53205997  0.71731427     0.13100
H789        H  0.62839904  0.62817300  0.72267358     0.12900
H790        H  0.64562338  0.61930682  0.66779313     0.12000
C791        C  0.83700975  0.99126997  0.46381142     0.18300
C792        C  0.82890049  0.98054345  0.43205631    -0.10800
C793        C  0.81227699  0.98271749  0.43033949    -0.11700
C794        C  0.80374495  0.99565379  0.46033855     0.19900
C795        C  0.81190454  0.00679202  0.49176629    -0.13700
C796        C  0.82847806  0.00462016  0.49348263    -0.12000
C797        C  0.78661733  0.99673341  0.45959562     0.00800
C798        C  0.77226685  0.99730283  0.46041084    -0.32000
C799        C  0.85405675  0.98884486  0.46643370     0.02200
C800        C  0.86822020  0.98908357  0.47177987    -0.33700
H801        H  0.83538802  0.97033982  0.40886481     0.13300
H802        H  0.80608025  0.97405618  0.40586911     0.13100
H803        H  0.80544102  0.01685795  0.51510152     0.12900
H804        H  0.83463867  0.01314365  0.51808324     0.12000
C805        C  0.59345779  0.28510624  0.02310441     0.18300
C806        C  0.60769346  0.26828558  0.01912641    -0.10800
C807        C  0.60749932  0.23542786  0.01891109    -0.11700
C808        C  0.59307066  0.21916290  0.02267925     0.19900
C809        C  0.57877380  0.23598031  0.02528092    -0.13700
C810        C  0.57896834  0.26884464  0.02548569    -0.12000
C811        C  0.59314228  0.18567142  0.02863118     0.00800
C812        C  0.59345348  0.15872103  0.03904745    -0.32000
C813        C  0.59386658  0.31861038  0.02903700     0.02200
C814        C  0.59413860  0.34573450  0.03885090    -0.33700
H815        H  0.61899179  0.28052987  0.01769841     0.13300
H816        H  0.61865198  0.22273210  0.01737203     0.13100
H817        H  0.56756265  0.22372712  0.02870063     0.12900
H818        H  0.56789504  0.28152932  0.02900849     0.12000
C819        C  0.62170739  0.08061859  0.20939102     0.18300
C820        C  0.61452928  0.06940260  0.24213132    -0.10800
C821        C  0.62389337  0.06196431  0.27315921    -0.11700
C822        C  0.64045338  0.06569700  0.27145925     0.19900
C823        C  0.64762837  0.07689184  0.23870817    -0.13700
C824        C  0.63826801  0.08432826  0.20769883    -0.12000
C825        C  0.65008818  0.05777769  0.30318410     0.00800
C826        C  0.65805592  0.05072982  0.32981239    -0.32000
C827        C  0.61221219  0.08730191  0.17703579     0.02200
C828        C  0.60503191  0.09157590  0.14839777    -0.33700
H829        H  0.60173281  0.06624354  0.24357965     0.13300
H830        H  0.61825453  0.05321649  0.29834628     0.13100
H831        H  0.66043638  0.07974613  0.23711328     0.12900
H832        H  0.64392943  0.09277011  0.18238424     0.12000
C833        C  0.59335513  0.71877224  0.90965832     0.18300
C834        C  0.60752739  0.73518608  0.90263356    -0.10800
C835        C  0.60774428  0.76804676  0.90359378    -0.11700
C836        C  0.59379285  0.78482449  0.91157724     0.19900
C837        C  0.57971681  0.76840541  0.91964082    -0.13700
C838        C  0.57949993  0.73550364  0.91868748    -0.12000
C839        C  0.59360785  0.81859234  0.90742808     0.00800
C840        C  0.59370590  0.84600098  0.89860023    -0.32000
C841        C  0.59272666  0.68520320  0.90382008     0.02200
C842        C  0.59237140  0.65803324  0.89405285    -0.33700
H843        H  0.61827723  0.72263453  0.89517349     0.13300
H844        H  0.61865882  0.78038059  0.89683098     0.13100
H845        H  0.56879289  0.78103112  0.92539457     0.12900
H846        H  0.56841545  0.72317578  0.92374698     0.12000
C847        C  0.64151841  0.94025714  0.66833568     0.18300
C848        C  0.64854823  0.93071524  0.70195217    -0.10800
C849        C  0.63902894  0.92355940  0.73292037    -0.11700
C850        C  0.62242187  0.92589996  0.73047607     0.19900
C851        C  0.61535973  0.93517856  0.69676529    -0.13700
C852        C  0.62489250  0.94233787  0.66575355    -0.12000
C853        C  0.61278053  0.91990303  0.76304030     0.00800
C854        C  0.60556740  0.91589366  0.79184241    -0.32000
C855        C  0.65137808  0.94838574  0.63677140     0.02200
C856        C  0.65946733  0.95569815  0.61024882    -0.33700
H857        H  0.66138103  0.92906142  0.70430531     0.13300
H858        H  0.64462635  0.91652495  0.75890077     0.13100
H859        H  0.60254650  0.93718703  0.69459069     0.12900
H860        H  0.61931787  0.94973495  0.63990071     0.12000
C861        C  0.30330764  0.98347364  0.01330040     0.18300
C862        C  0.31037497  0.97434862  0.97952292    -0.10800
C863        C  0.32694327  0.97336717  0.97624078    -0.11700
C864        C  0.33653974  0.98148181  0.00673816     0.19900
C865        C  0.32949335  0.99029902  0.04069812    -0.13700
C866        C  0.31289158  0.99127948  0.04398456    -0.12000
C867        C  0.35356509  0.98211396  0.00246372     0.00800
C868        C  0.36770469  0.98412605  0.99725113    -0.32000
C869        C  0.28624467  0.98547781  0.01591008     0.02200
C870        C  0.27192582  0.98729337  0.01623361    -0.33700
H871        H  0.30307228  0.96832909  0.95559582     0.13300
H872        H  0.33226758  0.96668359  0.94980628     0.13100
H873        H  0.33681025  0.99677899  0.06439119     0.12900
H874        H  0.30754786  0.99842937  0.07021546     0.12000
C875        C  0.71298959  0.97888646  0.00905881     0.18300
C876        C  0.70585193  0.97413548  0.97411744    -0.10800
C877        C  0.68927503  0.97509709  0.97063344    -0.11700
C878        C  0.67973258  0.98080023  0.00207162     0.19900
C879        C  0.68685235  0.98530674  0.03709005    -0.13700
C880        C  0.70344654  0.98434087  0.04057796    -0.12000
C881        C  0.66271068  0.98308161  0.99800923     0.00800
C882        C  0.64858515  0.98617210  0.99321309    -0.32000
C883        C  0.73008935  0.97863138  0.01230591     0.02200
C884        C  0.74444057  0.97861689  0.01383710    -0.33700
H885        H  0.71310171  0.96993667  0.94954418     0.13300
H886        H  0.68391164  0.97169849  0.94339746     0.13100
H887        H  0.67959917  0.98985238  0.06156933     0.12900
H888        H  0.70882923  0.98808194  0.06772582     0.12000
C889        C  0.49171251  0.02252690  0.94693427     0.18300
C890        C  0.49966417  0.04806549  0.96294101    -0.10800
C891        C  0.51623946  0.04930091  0.96176406    -0.11700
C892        C  0.52470810  0.02500511  0.94453993     0.19900
C893        C  0.51671319  0.99989816  0.92783590    -0.13700
C894        C  0.50018609  0.99865921  0.92903847    -0.12000
C895        C  0.54158824  0.02401730  0.94694105     0.00800
C896        C  0.55556582  0.02011394  0.95097438    -0.32000
C897        C  0.47495257  0.01945975  0.95107923     0.02200
C898        C  0.46105159  0.01500406  0.95585833    -0.33700
H899        H  0.49310665  0.06642793  0.97714788     0.13300
H900        H  0.52243323  0.06856648  0.97516649     0.13100
H901        H  0.52327604  0.98090384  0.91493781     0.12900
H902        H  0.49403212  0.97875345  0.91697957     0.12000
C903        C  0.17838677  0.98000138  0.47343516     0.18300
C904        C  0.18614777  0.00214121  0.45089166    -0.10800
C905        C  0.20269378  0.00120765  0.44685844    -0.11700
C906        C  0.21155398  0.97813108  0.46536067     0.19900
C907        C  0.20378277  0.95578202  0.48763945    -0.13700
C908        C  0.18721948  0.95671699  0.49168254    -0.12000
C909        C  0.22864015  0.97812370  0.46257310     0.00800
C910        C  0.24297836  0.97881435  0.46156065    -0.32000
C911        C  0.16145190  0.98199990  0.47881669     0.02200
C912        C  0.14737239  0.98524238  0.48394877    -0.33700
H913        H  0.17943088  0.02032738  0.43680867     0.13300
H914        H  0.20859070  0.01868381  0.42970049     0.13100
H915        H  0.21053303  0.93792072  0.50220105     0.12900
H916        H  0.18134139  0.93958224  0.50931356     0.12000
C917        C  0.52466618  0.08787043  0.06434403     0.18300
C918        C  0.51620302  0.11604416  0.06067060    -0.10800
C919        C  0.49952364  0.11593775  0.06093417    -0.11700
C920        C  0.49114969  0.08765130  0.06487878     0.19900
C921        C  0.49960165  0.05939121  0.06788281    -0.13700
C922        C  0.51629620  0.05949887  0.06761871    -0.12000
C923        C  0.47397288  0.08786679  0.06777515     0.00800
C924        C  0.45970556  0.08853018  0.07237894    -0.32000
C925        C  0.54186655  0.08834818  0.06636430     0.02200
C926        C  0.55618278  0.08965211  0.06977806    -0.33700
H927        H  0.52249932  0.13815645  0.05822511     0.13300
H928        H  0.49316584  0.13796421  0.05872443     0.13100
H929        H  0.49329765  0.03735628  0.07103313     0.12900
H930        H  0.52266530  0.03754076  0.07053768     0.12000
C931        C  0.37706311  0.06113161  0.28087644     0.18300
C932        C  0.37094210  0.07870477  0.25110917    -0.10800
C933        C  0.38054195  0.08563195  0.22022697    -0.11700
C934        C  0.39632015  0.07505117  0.21890869     0.19900
C935        C  0.40255963  0.05794363  0.24898097    -0.13700
C936        C  0.39294351  0.05101439  0.27993225    -0.12000
C937        C  0.40569764  0.08048699  0.18579152     0.00800
C938        C  0.41234813  0.08453022  0.15625986    -0.32000
C939        C  0.36684992  0.05236912  0.31153164     0.02200
C940        C  0.35830655  0.04385155  0.33670206    -0.33700
H941        H  0.35868206  0.08657298  0.25148206     0.13300
H942        H  0.37557121  0.09876736  0.19705044     0.13100
H943        H  0.41471334  0.04953313  0.24820891     0.12900
H944        H  0.39779095  0.03733893  0.30276728     0.12000
C945        C  0.52496883  0.92118347  0.87541060     0.18300
C946        C  0.51657949  0.90731923  0.90508458    -0.10800
C947        C  0.49987503  0.90718438  0.90517594    -0.11700
C948        C  0.49142269  0.92092994  0.87559897     0.19900
C949        C  0.49982063  0.93551798  0.84645699    -0.13700
C950        C  0.51650488  0.93564357  0.84636213    -0.12000
C951        C  0.47421914  0.91903218  0.87421248     0.00800
C952        C  0.45991626  0.91671767  0.87102068    -0.32000
C953        C  0.54217355  0.91940927  0.87377119     0.02200
C954        C  0.55647202  0.91709076  0.87040632    -0.33700
H955        H  0.52294280  0.89610382  0.92777573     0.13300
H956        H  0.49356467  0.89588553  0.92794250     0.13100
H957        H  0.49347272  0.94629567  0.82345299     0.12900
H958        H  0.52280282  0.94650513  0.82327082     0.12000
C959        C  0.37284519  0.92925822  0.67075847     0.18300
C960        C  0.36700562  0.93475897  0.70686491    -0.10800
C961        C  0.37701645  0.93124121  0.73778723    -0.11700
C962        C  0.39292272  0.92224800  0.73279878     0.19900
C963        C  0.39876305  0.91661747  0.69669764    -0.13700
C964        C  0.38874077  0.92014299  0.66573505    -0.12000
C965        C  0.40309061  0.91866902  0.76490302     0.00800
C966        C  0.41059756  0.91568470  0.79341242    -0.32000
C967        C  0.36269283  0.93396404  0.63884198     0.02200
C968        C  0.35464370  0.93922428  0.61166498    -0.33700
H969        H  0.35477018  0.94193763  0.71107944     0.13300
H970        H  0.37236650  0.93561521  0.76559658     0.13100
H971        H  0.41102627  0.90961396  0.69250278     0.12900
H972        H  0.39340095  0.91595630  0.63790587     0.12000
C973        C  0.17707339  0.52842848  0.46736822     0.18300
C974        C  0.18571165  0.55293599  0.48388673    -0.10800
C975        C  0.20230863  0.55412725  0.48017932    -0.11700
C976        C  0.21034914  0.53080659  0.45996769     0.19900
C977        C  0.20168505  0.50651399  0.44314277    -0.13700
C978        C  0.18510892  0.50532605  0.44684154    -0.12000
C979        C  0.22748917  0.53119600  0.45738240     0.00800
C980        C  0.24185122  0.53073218  0.45593524    -0.32000
C981        C  0.16008753  0.52609727  0.47273704     0.02200
C982        C  0.14602907  0.52238841  0.47833096    -0.33700
H983        H  0.17965524  0.57084454  0.49998021     0.13300
H984        H  0.20887341  0.57297971  0.49341188     0.13100
H985        H  0.20775681  0.48830332  0.42755127     0.12900
H986        H  0.17858093  0.48617400  0.43410234     0.12000
C987        C  0.52384923  0.41249448  0.05912276     0.18300
C988        C  0.51540798  0.38422271  0.06254361    -0.10800
C989        C  0.49871607  0.38418493  0.06251451    -0.11700
C990        C  0.49026830  0.41240933  0.05906098     0.19900
C991        C  0.49870376  0.44065362  0.05497372    -0.13700
C992        C  0.51541593  0.44069290  0.05500081    -0.12000
C993        C  0.47303004  0.41237871  0.06138542     0.00800
C994        C  0.45869603  0.41160772  0.06526450    -0.32000
C995        C  0.54107333  0.41260503  0.06159789     0.02200
C996        C  0.55539276  0.41221041  0.06562443    -0.33700
H997        H  0.52172740  0.36225138  0.06586498     0.13300
H998        H  0.49239337  0.36216717  0.06580678     0.13100
H999        H  0.49237345  0.46266868  0.05225006     0.12900
H1000       H  0.52174869  0.46274127  0.05230580     0.12000
C1001       C  0.42104961  0.21584479  0.03121207     0.18300
C1002       C  0.43546752  0.23248395  0.03202750    -0.10800
C1003       C  0.43550368  0.26534105  0.02989043    -0.11700
C1004       C  0.42112233  0.28185760  0.02691496     0.19900
C1005       C  0.40674857  0.26516423  0.02490685    -0.13700
C1006       C  0.40671309  0.23231431  0.02704511    -0.12000
C1007       C  0.42096700  0.31569167  0.03038858     0.00800
C1008       C  0.42069561  0.34319799  0.03876678    -0.32000
C1009       C  0.42085832  0.18237865  0.03821593     0.02200
C1010       C  0.42073455  0.15524054  0.04823814    -0.33700
H1011       H  0.44663074  0.22014614  0.03560491     0.13300
H1012       H  0.44668817  0.27788969  0.03194542     0.13100
H1013       H  0.39552606  0.27758089  0.02307910     0.12900
H1014       H  0.39546224  0.21983809  0.02674080     0.12000
C1015       C  0.39276445  0.42801451  0.20518776     0.18300
C1016       C  0.38500204  0.45711059  0.20505663    -0.10800
C1017       C  0.37510312  0.46559755  0.23484767    -0.11700
C1018       C  0.37286551  0.44503280  0.26496699     0.19900
C1019       C  0.38062157  0.41589946  0.26514273    -0.13700
C1020       C  0.39053712  0.40739090  0.23528613    -0.12000
C1021       C  0.36281405  0.45414504  0.29582402     0.00800
C1022       C  0.35472018  0.46277758  0.32177209    -0.32000
C1023       C  0.40263301  0.41932007  0.17386361     0.02200
C1024       C  0.40997836  0.41383396  0.14558316    -0.33700
H1025       H  0.38657061  0.47318850  0.18187368     0.13300
H1026       H  0.36920027  0.48820891  0.23440395     0.13100
H1027       H  0.37901037  0.39982333  0.28830412     0.12900
H1028       H  0.39641782  0.38476665  0.23562640     0.12000
C1029       C  0.52236026  0.58637782  0.86693784     0.18300
C1030       C  0.51422170  0.57675431  0.83468105    -0.10800
C1031       C  0.49753513  0.57632665  0.83402302    -0.11700
C1032       C  0.48879847  0.58551093  0.86562298     0.19900
C1033       C  0.49692736  0.59482013  0.89803374    -0.13700
C1034       C  0.51363206  0.59524704  0.89869158    -0.12000
C1035       C  0.47155744  0.58605064  0.86436831     0.00800
C1036       C  0.45718279  0.58713284  0.86199634    -0.32000
C1037       C  0.53960038  0.58784529  0.86690705     0.02200
C1038       C  0.55397305  0.58943733  0.86466596    -0.33700
H1039       H  0.52077646  0.56985918  0.80990572     0.13300
H1040       H  0.49145031  0.56910376  0.80876094     0.13100
H1041       H  0.49035676  0.60199902  0.92267959     0.12900
H1042       H  0.51973159  0.60275797  0.92383259     0.12000
C1043       C  0.42416293  0.78318372  0.91077577     0.18300
C1044       C  0.41084675  0.76706021  0.92468706    -0.10800
C1045       C  0.41044481  0.73417021  0.92416010    -0.11700
C1046       C  0.42335509  0.71718306  0.90971543     0.19900
C1047       C  0.43685449  0.73330639  0.89685116    -0.13700
C1048       C  0.43725647  0.76615477  0.89737975    -0.12000
C1049       C  0.42215709  0.68364753  0.90436316     0.00800
C1050       C  0.42102467  0.65650665  0.89488245    -0.32000
C1051       C  0.42379376  0.81690335  0.90650201     0.02200
C1052       C  0.42330933  0.84432744  0.89790601    -0.33700
H1053       H  0.40056639  0.77989999  0.93472467     0.13300
H1054       H  0.39986104  0.72205054  0.93379673     0.13100
H1055       H  0.44684172  0.72052833  0.88520336     0.12900
H1056       H  0.44754627  0.77827491  0.88613499     0.12000
C1057       C  0.39062412  0.58435201  0.72495096     0.18300
C1058       C  0.37424605  0.59059153  0.72568293    -0.10800
C1059       C  0.36512137  0.58687826  0.69329090    -0.11700
C1060       C  0.37234275  0.57692149  0.66001804     0.19900
C1061       C  0.38875511  0.57105156  0.65917028    -0.13700
C1062       C  0.39787935  0.57476139  0.69156819    -0.12000
C1063       C  0.36286116  0.57162035  0.62712457     0.00800
C1064       C  0.35514056  0.56581813  0.59958408    -0.32000
C1065       C  0.39984894  0.58705405  0.75868390     0.02200
C1066       C  0.40703115  0.58901925  0.78776190    -0.33700
H1067       H  0.36850986  0.59798386  0.75137077     0.13300
H1068       H  0.35244277  0.59139389  0.69429396     0.13100
H1069       H  0.39445225  0.56325439  0.63360904     0.12900
H1070       H  0.41052556  0.56983522  0.69069621     0.12000
C1071       C  0.30125106  0.51968886  0.01055003     0.18300
C1072       C  0.30817201  0.52861473  0.97648560    -0.10800
C1073       C  0.32469391  0.52722997  0.97175286    -0.11700
C1074       C  0.33443838  0.51692204  0.00104850     0.19900
C1075       C  0.32753503  0.50799191  0.03517581    -0.13700
C1076       C  0.31098139  0.50938053  0.03991923    -0.12000
C1077       C  0.35144857  0.51505214  0.99568081     0.00800
C1078       C  0.36557994  0.51292663  0.98986918    -0.32000
C1079       C  0.28418148  0.52093914  0.01499059     0.02200
C1080       C  0.26983776  0.52212673  0.01701540    -0.33700
H1081       H  0.30078909  0.53656279  0.95354383     0.13300
H1082       H  0.32986678  0.53409612  0.94519298     0.13100
H1083       H  0.33492552  0.49987667  0.05800615     0.12900
H1084       H  0.30578271  0.50235459  0.06636664     0.12000
C1085       C  0.67749414  0.52297242  0.00108058     0.18300
C1086       C  0.68413712  0.51098009  0.03406267    -0.10800
C1087       C  0.70068537  0.51050129  0.03872955    -0.11700
C1088       C  0.71066903  0.52199610  0.01041989     0.19900
C1089       C  0.70400936  0.53440256  0.97768934    -0.13700
C1090       C  0.68747553  0.53487858  0.97302424    -0.12000
C1091       C  0.72772729  0.52011462  0.01419988     0.00800
C1092       C  0.74205269  0.51818423  0.01541965    -0.32000
C1093       C  0.66052749  0.52170486  0.99523104     0.02200
C1094       C  0.64644490  0.51910078  0.98930529    -0.33700
H1095       H  0.67654590  0.50157855  0.05588563     0.13300
H1096       H  0.70568967  0.50078166  0.06411489     0.13100
H1097       H  0.71160359  0.54328468  0.95556260     0.12900
H1098       H  0.68249317  0.54407506  0.94734194     0.12000
C1099       C  0.48984308  0.47872103  0.93545641     0.18300
C1100       C  0.49822211  0.50090235  0.91435044    -0.10800
C1101       C  0.51479014  0.50045269  0.91416851    -0.11700
C1102       C  0.52289448  0.47781100  0.93508258     0.19900
C1103       C  0.51451522  0.45487212  0.95503004    -0.13700
C1104       C  0.49793181  0.45532851  0.95521973    -0.12000
C1105       C  0.53970033  0.48018790  0.93914614     0.00800
C1106       C  0.55357183  0.48439707  0.94473882    -0.32000
C1107       C  0.47306460  0.48178490  0.93956982     0.02200
C1108       C  0.45917340  0.48593096  0.94499892    -0.33700
H1109       H  0.49197514  0.51915203  0.89921272     0.13300
H1110       H  0.52126215  0.51839032  0.89893756     0.13100
H1111       H  0.52077809  0.43744984  0.97143083     0.12900
H1112       H  0.49145677  0.43823452  0.97173333     0.12000
loop_ 
_geom_bond_atom_site_label_1 
_geom_bond_atom_site_label_2 
_geom_bond_distance 
_geom_bond_site_symmetry_2 
_ccdc_geom_bond_type 
O1           Cu9   1.997       .  S
O1           C11   1.276       .  A
O2           Cu9   2.016       .  S
O2           C12   1.277       .  A
O3           Cu9   2.009       .  S
O3           C13   1.276       .  A
O4           Cu9   2.001   1_554  S
O4           C14   1.277       .  A
O5          Cu10   2.023       .  S
O5           C14   1.278   1_556  A
O6          Cu10   2.019       .  S
O6           C13   1.281       .  A
O7          Cu10   2.007       .  S
O7           C12   1.276       .  A
O8          Cu10   1.982       .  S
O8           C11   1.272       .  A
Cu9         Cu10   2.377       .  S
C11        C1106   1.418       .  S
C12        C1094   1.437       .  S
C13         C203   1.480       .  S
C14         C215   1.472       .  S
O15         Cu23   2.026       .  S
O15          C25   1.278   1_556  A
O16         Cu23   2.022       .  S
O16          C26   1.281       .  A
O17         Cu23   1.982       .  S
O17          C27   1.272       .  A
O18         Cu23   2.009       .  S
O18          C28   1.276       .  A
O19         Cu24   2.018       .  S
O19          C28   1.278       .  A
O20         Cu24   1.997       .  S
O20          C27   1.276       .  A
O21         Cu24   2.010       .  S
O21          C26   1.276       .  A
O22         Cu24   2.003   1_554  S
O22          C25   1.278       .  A
Cu23        Cu24   2.376       .  S
C25          C48   1.474       .  S
C26          C36   1.480       .  S
C27        C1108   1.418       .  S
C28        C1078   1.439       .  S
C29          C30   1.530       .  S
C29          C35   1.529       .  S
C29          C33   1.536       .  S
C29        C1066   1.468       .  S
C30          H37   1.087       .  S
C30          C31   1.362       .  D
C31          C32   1.542       .  S
C31        C1050   1.446       .  S
C32          C36   1.551       .  S
C32          C34   1.543       .  S
C32          H38   1.111       .  S
C33          H39   1.086       .  S
C33          C34   1.366       .  D
C34        C1036   1.451       .  S
C35          H40   1.087       .  S
C35          C36   1.365       .  D
C41          C42   1.530       .  S
C41          C47   1.526       .  S
C41          C45   1.537       .  S
C41        C1024   1.469       .  S
C42          H49   1.087       .  S
C42          C43   1.364       .  D
C43          C44   1.544       .  S
C43        C1008   1.448       .  S
C44          C48   1.550       .  S
C44          C46   1.545       .  S
C44          H50   1.111       .  S
C45          H51   1.086       .  S
C45          C46   1.368       .  D
C46         C994   1.452       .  S
C47          H52   1.087       .  S
C47          C48   1.362       .  D
N53          N54   1.323       .  A
N53          C57   1.346       .  A
N53         Cu61   2.075       .  S
N54          C55   1.344       .  A
N54         Cu60   2.068       .  S
C55          C56   1.378       .  A
C55          H58   1.082       .  S
C56        C1064   1.436       .  S
C56          C57   1.381       .  A
C57          H59   1.082       .  S
Cu60         N63   2.069       .  S
Cu61         N71   2.075       .  S
Cu62         N64   2.083       .  S
Cu62         N70   2.084       .  S
N63          N64   1.323       .  A
N63          C67   1.344       .  A
N64          C65   1.348       .  A
C65          C66   1.382       .  A
C65          H68   1.082       .  S
C66        C1022   1.439       .  S
C66          C67   1.378       .  A
C67          H69   1.082       .  S
N70          N71   1.324       .  A
N70          C74   1.347       .  A
N71          C72   1.346       .  A
C72          C73   1.379       .  A
C72          H75   1.081       .  S
C73         C980   1.440       .  S
C73          C74   1.381       .  A
C74          H76   1.081       .  S
C77          C78   1.529       .  S
C77          C83   1.529       .  S
C77          C81   1.536       .  S
C77         C966   1.468       .  S
C78          H85   1.087       .  S
C78          C79   1.365       .  D
C79         C150   1.479       .  S
C79          C80   1.550       .  S
C80          C84   1.542       .  S
C80          C82   1.543       .  S
C80          H86   1.111       .  S
C81          H87   1.086       .  S
C81          C82   1.367       .  D
C82         C952   1.450       .  S
C83          H88   1.087       .  S
C83          C84   1.362       .  D
C84        C1052   1.446       .  S
C89          C90   1.529       .  S
C89          C95   1.532       .  S
C89          C93   1.535       .  S
C89         C938   1.468       .  S
C90          H97   1.087       .  S
C90          C91   1.363       .  D
C91         C149   1.475       .  S
C91          C92   1.549       .  S
C92          C96   1.543       .  S
C92          C94   1.542       .  S
C92          H98   1.111       .  S
C93          H99   1.086       .  S
C93          C94   1.366       .  D
C94         C924   1.448       .  S
C95         H100   1.087       .  S
C95          C96   1.364       .  D
C96        C1010   1.449       .  S
N101        N102   1.322       .  A
N101        C105   1.347       .  A
N101       Cu109   2.074       .  S
N102        C103   1.343       .  A
N102       Cu108   2.064       .  S
C103        C104   1.377       .  A
C103        H106   1.083       .  S
C104        C968   1.436       .  S
C104        C105   1.382       .  A
C105        H107   1.082       .  S
Cu108       N111   2.064   1_565  S
Cu109       N119   2.074       .  S
Cu110       N112   2.080       .  S
Cu110       N118   2.081   1_545  S
N111        N112   1.323       .  A
N111        C115   1.343       .  A
N112        C113   1.348       .  A
C113        C114   1.382       .  A
C113        H116   1.082       .  S
C114        C940   1.437       .  S
C114        C115   1.377       .  A
C115        H117   1.083       .  S
N118        N119   1.325       .  A
N118        C122   1.347       .  A
N119        C120   1.344       .  A
C120        C121   1.377       .  A
C120        H123   1.081       .  S
C121        C910   1.436       .  S
C121        C122   1.380       .  A
C122        H124   1.081   1_565  S
O125       Cu133   1.994       .  S
O125        C135   1.275   1_565  A
O126       Cu133   2.014   1_554  S
O126        C136   1.277   1_554  A
O127       Cu133   1.999   1_544  S
O127        C137   1.277       .  A
O128       Cu133   2.008       .  S
O128        C138   1.275       .  A
O129       Cu134   2.017   1_565  S
O129        C138   1.281       .  A
O130       Cu134   2.018       .  S
O130        C137   1.277   1_556  A
O131       Cu134   2.006       .  S
O131        C136   1.276   1_545  A
O132       Cu134   1.982       .  S
O132        C135   1.272       .  A
Cu133      Cu134   2.378   1_565  S
C135        C896   1.416       .  S
C136        C882   1.436       .  S
C137        C172   1.469       .  S
C138        C160   1.478       .  S
O139       Cu147   2.009   1_544  S
O139        C149   1.279       .  A
O140       Cu147   2.015       .  S
O140        C150   1.277       .  A
O141       Cu147   1.992       .  S
O141        C151   1.275   1_565  A
O142       Cu147   2.010   1_554  S
O142        C152   1.276   1_554  A
O143       Cu148   2.003       .  S
O143        C152   1.276   1_545  A
O144       Cu148   1.982       .  S
O144        C151   1.272       .  A
O145       Cu148   2.016   1_565  S
O145        C150   1.280       .  A
O146       Cu148   2.021       .  S
O146        C149   1.277   1_556  A
Cu147      Cu148   2.377   1_565  S
C151        C898   1.416       .  S
C152        C868   1.433       .  S
C153        C154   1.529       .  S
C153        C159   1.528       .  S
C153        C157   1.536       .  S
C153        C854   1.468       .  S
C154        H161   1.087       .  S
C154        C155   1.363       .  D
C155        C156   1.544       .  S
C155        C840   1.448       .  S
C156        C160   1.550       .  S
C156        C158   1.543       .  S
C156        H162   1.111       .  S
C157        H163   1.086       .  S
C157        C158   1.366       .  D
C158        C954   1.450       .  S
C159        H164   1.087       .  S
C159        C160   1.364       .  D
C165        C166   1.530       .  S
C165        C171   1.526       .  S
C165        C169   1.535       .  S
C165        C828   1.463       .  S
C166        H173   1.087       .  S
C166        C167   1.363       .  D
C167        C168   1.541       .  S
C167        C812   1.444       .  S
C168        C172   1.547       .  S
C168        C170   1.543       .  S
C168        H174   1.111       .  S
C169        H175   1.086       .  S
C169        C170   1.366       .  D
C170        C926   1.448       .  S
C171        H176   1.087       .  S
C171        C172   1.361       .  D
N177        N178   1.322       .  A
N177        C181   1.345       .  A
N177       Cu185   2.068       .  S
N178        C179   1.343       .  A
N178       Cu184   2.061       .  S
C179        C180   1.377       .  A
C179        H182   1.082       .  S
C180        C826   1.432       .  S
C180        C181   1.379       .  A
C181        H183   1.082       .  S
Cu184       N187   2.061   1_545  S
Cu185       N195   2.069       .  S
Cu186       N188   2.086       .  S
Cu186       N194   2.086       .  S
N187        N188   1.323       .  A
N187        C191   1.343       .  A
N188        C189   1.348       .  A
C189        C190   1.383       .  A
C189        H192   1.082       .  S
C190        C856   1.438       .  S
C190        C191   1.376       .  A
C191        H193   1.082       .  S
N194        N195   1.324   1_565  A
N194        C198   1.347       .  A
N195        C196   1.345       .  A
C196        C197   1.377   1_545  A
C196        H199   1.081       .  S
C197        C798   1.437       .  S
C197        C198   1.381       .  A
C198        H200   1.081       .  S
C201        C202   1.528       .  S
C201        C207   1.529       .  S
C201        C205   1.534       .  S
C201        C784   1.467       .  S
C202        H209   1.086       .  S
C202        C203   1.365       .  D
C203        C204   1.552       .  S
C204        C208   1.544       .  S
C204        C206   1.545       .  S
C204        H210   1.111       .  S
C205        H211   1.086       .  S
C205        C206   1.365       .  D
C206       C1038   1.451       .  S
C207        H212   1.087       .  S
C207        C208   1.362       .  D
C208        C842   1.447       .  S
C213        C214   1.527       .  S
C213        C219   1.531       .  S
C213        C217   1.537       .  S
C213        C772   1.468       .  S
C214        H221   1.087       .  S
C214        C215   1.362       .  D
C215        C216   1.547       .  S
C216        C220   1.541       .  S
C216        C218   1.543       .  S
C216        H222   1.111       .  S
C217        H223   1.086       .  S
C217        C218   1.367       .  D
C218        C996   1.451       .  S
C219        H224   1.087       .  S
C219        C220   1.364       .  D
C220        C814   1.445       .  S
N225        N226   1.322       .  A
N225        C229   1.347       .  A
N225       Cu233   2.082       .  S
N226        C227   1.344       .  A
N226       Cu232   2.063       .  S
C227        C228   1.377       .  A
C227        H230   1.082       .  S
C228        C770   1.437       .  S
C228        C229   1.382       .  A
C229        H231   1.082       .  S
Cu232       N235   2.062       .  S
Cu233       N243   2.083       .  S
Cu234       N236   2.082       .  S
Cu234       N242   2.083       .  S
N235        N236   1.323       .  A
N235        C239   1.343       .  A
N236        C237   1.348       .  A
C237        C238   1.382       .  A
C237        H240   1.082       .  S
C238        C786   1.437       .  S
C238        C239   1.376       .  A
C239        H241   1.082       .  S
N242        N243   1.325       .  A
N242        C246   1.347       .  A
N243        C244   1.347       .  A
C244        C245   1.381       .  A
C244        H247   1.081       .  S
C245        C756   1.441       .  S
C245        C246   1.380       .  A
C246        H248   1.081       .  S
O249       Cu257   2.000       .  S
O249        C259   1.277       .  A
O250       Cu257   2.006       .  S
O250        C260   1.275       .  A
O251       Cu257   2.019       .  S
O251        C261   1.278       .  A
O252       Cu257   2.002       .  S
O252        C262   1.276       .  A
O253       Cu258   1.986       .  S
O253        C262   1.272       .  A
O254       Cu258   2.007       .  S
O254        C261   1.276       .  A
O255       Cu258   2.016       .  S
O255        C260   1.281       .  A
O256       Cu258   2.021       .  S
O256        C259   1.278       .  A
Cu257      Cu258   2.377       .  S
C259        C420   1.471       .  S
C260        C408   1.477       .  S
C261        C982   1.438       .  S
C262        C744   1.422       .  S
O263       Cu271   2.006       .  S
O263        C273   1.278       .  A
O264       Cu271   2.012       .  S
O264        C274   1.276       .  A
O265       Cu271   2.002       .  S
O265        C275   1.276       .  A
O266       Cu271   2.019       .  S
O266        C276   1.278       .  A
O267       Cu272   2.009       .  S
O267        C276   1.276       .  A
O268       Cu272   1.988       .  S
O268        C275   1.273       .  A
O269       Cu272   2.013       .  S
O269        C274   1.280       .  A
O270       Cu272   2.018       .  S
O270        C273   1.277       .  A
Cu271      Cu272   2.376       .  S
C273        C291   1.472       .  S
C274        C279   1.478       .  S
C275        C742   1.422       .  S
C276        C758   1.439       .  S
C277        C278   1.529       .  S
C277        C283   1.530       .  S
C277        C281   1.536       .  S
C277        C728   1.467       .  S
C278        H285   1.087       .  S
C278        C279   1.365       .  D
C279        C280   1.549       .  S
C280        C284   1.542       .  S
C280        C282   1.543       .  S
C280        H286   1.111       .  S
C281        H287   1.086       .  S
C281        C282   1.366       .  D
C282        C700   1.451       .  S
C283        H288   1.087       .  S
C283        C284   1.363       .  D
C284        C714   1.445       .  S
C289        C290   1.527       .  S
C289        C295   1.531       .  S
C289        C293   1.535       .  S
C289        C688   1.466       .  S
C290        H297   1.087       .  S
C290        C291   1.362       .  D
C291        C292   1.548       .  S
C292        C296   1.542       .  S
C292        C294   1.543       .  S
C292        H298   1.111       .  S
C293        H299   1.086       .  S
C293        C294   1.366       .  D
C294        C658   1.448       .  S
C295        H300   1.087       .  S
C295        C296   1.363       .  D
C296        C672   1.446       .  S
N301        N302   1.323       .  A
N301        C305   1.347       .  A
N301       Cu309   2.081       .  S
N302        C303   1.344       .  A
N302       Cu308   2.067       .  S
C303        C304   1.377       .  A
C303        H306   1.082       .  S
C304        C686   1.437       .  S
C304        C305   1.381       .  A
C305        H307   1.082       .  S
Cu308       N311   2.067   1_554  S
Cu309       N319   2.082       .  S
Cu310       N312   2.073       .  S
Cu310       N318   2.074       .  S
N311        N312   1.322       .  A
N311        C315   1.344       .  A
N312        C313   1.346       .  A
C313        C314   1.380       .  A
C313        H316   1.082       .  S
C314        C730   1.436       .  S
C314        C315   1.378       .  A
C315        H317   1.082       .  S
N318        N319   1.324   1_556  A
N318        C322   1.345       .  A
N319        C320   1.348       .  A
C320        C321   1.381       .  A
C320        H323   1.081       .  S
C321       C1092   1.439       .  S
C321        C322   1.378   1_554  A
C322        H324   1.081       .  S
C325        C326   1.529       .  S
C325        C331   1.530       .  S
C325        C329   1.535       .  S
C325        C646   1.467       .  S
C326        H333   1.087       .  S
C326        C327   1.362       .  D
C327        C328   1.542       .  S
C327        C716   1.445       .  S
C328        C332   1.550       .  S
C328        C330   1.543       .  S
C328        H334   1.111       .  S
C329        H335   1.086       .  S
C329        C330   1.366       .  D
C330        C630   1.450       .  S
C331        H336   1.086       .  S
C331        C332   1.366       .  D
C332        C400   1.479       .  S
C337        C338   1.531       .  S
C337        C343   1.528       .  S
C337        C341   1.535       .  S
C337        C618   1.467       .  S
C338        H345   1.087       .  S
C338        C339   1.364       .  D
C339        C340   1.541       .  S
C339        C674   1.446       .  S
C340        C344   1.546       .  S
C340        C342   1.543       .  S
C340        H346   1.111       .  S
C341        H347   1.086       .  S
C341        C342   1.367       .  D
C342        C602   1.449       .  S
C343        H348   1.087       .  S
C343        C344   1.362       .  D
C344        C399   1.471       .  S
N349        N350   1.323       .  A
N349        C353   1.347       .  A
N349       Cu357   2.080       .  S
N350        C351   1.344       .  A
N350       Cu356   2.067   1_545  S
C351        C352   1.377       .  A
C351        H354   1.082       .  S
C352        C616   1.437       .  S
C352        C353   1.381       .  A
C353        H355   1.082       .  S
Cu356       N359   2.067   1_554  S
Cu357       N367   2.080   1_545  S
Cu358       N360   2.074       .  S
Cu358       N366   2.075       .  S
N359        N360   1.322       .  A
N359        C363   1.344       .  A
N360        C361   1.346       .  A
C361        C362   1.381       .  A
C361        H364   1.082       .  S
C362        C644   1.436       .  S
C362        C363   1.378       .  A
C363        H365   1.082       .  S
N366        N367   1.324   1_556  A
N366        C370   1.345       .  A
N367        C368   1.347       .  A
C368        C369   1.381       .  A
C368        H371   1.081   1_565  S
C369        C884   1.438       .  S
C369        C370   1.379   1_554  A
C370        H372   1.081       .  S
O373       Cu381   2.020       .  S
O373        C383   1.277       .  A
O374       Cu381   2.013   1_565  S
O374        C384   1.280       .  A
O375       Cu381   2.002       .  S
O375        C385   1.275   1_545  A
O376       Cu381   1.980       .  S
O376        C386   1.272       .  A
O377       Cu382   1.994       .  S
O377        C386   1.275   1_565  A
O378       Cu382   2.010       .  S
O378        C385   1.276       .  A
O379       Cu382   2.006       .  S
O379        C384   1.275       .  A
O380       Cu382   2.002   1_545  S
O380        C383   1.278       .  A
Cu381      Cu382   2.378   1_545  S
C383        C463   1.471       .  S
C384        C451   1.475       .  S
C385        C912   1.433       .  S
C386        C590   1.416       .  S
O387       Cu395   1.996       .  S
O387        C397   1.276   1_565  A
O388       Cu395   2.015       .  S
O388        C398   1.277       .  A
O389       Cu395   2.002   1_545  S
O389        C399   1.278       .  A
O390       Cu395   2.011       .  S
O390        C400   1.276       .  A
O391       Cu396   2.018   1_565  S
O391        C400   1.281       .  A
O392       Cu396   2.019       .  S
O392        C399   1.277       .  A
O393       Cu396   1.998       .  S
O393        C398   1.275   1_545  A
O394       Cu396   1.978       .  S
O394        C397   1.271       .  A
Cu395      Cu396   2.378   1_565  S
C397        C588   1.416       .  S
C398        C800   1.433       .  S
C401        C402   1.529       .  S
C401        C407   1.527       .  S
C401        C405   1.536       .  S
C401        C574   1.466       .  S
C402        H409   1.087       .  S
C402        C403   1.363       .  D
C403        C404   1.543       .  S
C403        C560   1.446       .  S
C404        C408   1.550       .  S
C404        C406   1.543       .  S
C404        H410   1.111       .  S
C405        H411   1.087       .  S
C405        C406   1.366       .  D
C406        C702   1.451       .  S
C407        H412   1.087       .  S
C407        C408   1.364       .  D
C413        C414   1.530       .  S
C413        C419   1.527       .  S
C413        C417   1.534       .  S
C413        C546   1.465       .  S
C414        H421   1.087       .  S
C414        C415   1.363       .  D
C415        C416   1.542       .  S
C415        C534   1.445       .  S
C416        C420   1.547       .  S
C416        C418   1.544       .  S
C416        H422   1.111       .  S
C417        H423   1.086       .  S
C417        C418   1.366       .  D
C418        C660   1.448       .  S
C419        H424   1.087       .  S
C419        C420   1.362       .  D
N425        N426   1.322       .  A
N425        C429   1.343       .  A
N425       Cu433   2.062   1_556  S
N426        C427   1.347       .  A
N426       Cu432   2.080       .  S
C427        C428   1.382       .  A
C427        H430   1.082       .  S
C428        C576   1.436       .  S
C428        C429   1.377       .  A
C429        H431   1.082       .  S
Cu432       N435   2.081       .  S
Cu433       N443   2.062       .  S
Cu434       N436   2.079       .  S
Cu434       N442   2.078       .  S
N435        N436   1.324   1_556  A
N435        C439   1.346       .  A
N436        C437   1.347       .  A
C437        C438   1.381       .  A
C437        H440   1.080       .  S
C438       C1080   1.440       .  S
C438        C439   1.380   1_554  A
C439        H441   1.081       .  S
N442        N443   1.323       .  A
N442        C446   1.346       .  A
N443        C444   1.343       .  A
C444        C445   1.377       .  A
C444        H447   1.082       .  S
C445        C548   1.434       .  S
C445        C446   1.381       .  A
C446        H448   1.082       .  S
C449        C450   1.528       .  S
C449        C455   1.530       .  S
C449        C453   1.537       .  S
C449        C520   1.468       .  S
C450        H457   1.087       .  S
C450        C451   1.364       .  D
C451        C452   1.548       .  S
C452        C456   1.542       .  S
C452        C454   1.542       .  S
C452        H458   1.111       .  S
C453        H459   1.087       .  S
C453        C454   1.367       .  D
C454        C632   1.450       .  S
C455        H460   1.087       .  S
C455        C456   1.363       .  D
C456        C562   1.446       .  S
C461        C462   1.526       .  S
C461        C467   1.530       .  S
C461        C465   1.534       .  S
C461        C506   1.464       .  S
C462        H469   1.087       .  S
C462        C463   1.362       .  D
C463        C464   1.548       .  S
C464        C468   1.541       .  S
C464        C466   1.544       .  S
C464        H470   1.111       .  S
C465        H471   1.087       .  S
C465        C466   1.366       .  D
C466        C604   1.449       .  S
C467        H472   1.087       .  S
C467        C468   1.363       .  D
C468        C532   1.445       .  S
N473        N474   1.323       .  A
N473        C477   1.346       .  A
N473       Cu481   2.072       .  S
N474        C475   1.343       .  A
N474       Cu480   2.066   1_545  S
C475        C476   1.377       .  A
C475        H478   1.082       .  S
C476        C504   1.434       .  S
C476        C477   1.380       .  A
C477        H479   1.082       .  S
Cu480       N483   2.067   1_554  S
Cu481       N491   2.072       .  S
Cu482       N484   2.078       .  S
Cu482       N490   2.078       .  S
N483        N484   1.323       .  A
N483        C487   1.344       .  A
N484        C485   1.347       .  A
C485        C486   1.381       .  A
C485        H488   1.082       .  S
C486        C518   1.437       .  S
C486        C487   1.378       .  A
C487        H489   1.082       .  S
N490        N491   1.324   1_566  A
N490        C494   1.345       .  A
N491        C492   1.346       .  A
C492        C493   1.378   1_545  A
C492        H495   1.081       .  S
C493        C870   1.436       .  S
C493        C494   1.379   1_554  A
C494        H496   1.081       .  S
C497        C505   1.436       .  S
C497        C498   1.401       .  A
C497        C502   1.401       .  A
C498        C499   1.398       .  A
C498        H507   1.084       .  S
C499        C500   1.401       .  A
C499        H508   1.083       .  S
C500        C503   1.437       .  S
C500        C501   1.401       .  A
C501        C502   1.397       .  A
C501        H509   1.084       .  S
C502        H510   1.083       .  S
C503        C504   1.204       .  T
C505        C506   1.204       .  T
C511        C519   1.440       .  S
C511        C512   1.401       .  A
C511        C516   1.401       .  A
C512        C513   1.399       .  A
C512        H521   1.084       .  S
C513        C514   1.401       .  A
C513        H522   1.083       .  S
C514        C517   1.440       .  S
C514        C515   1.401       .  A
C515        C516   1.399       .  A
C515        H523   1.084       .  S
C516        H524   1.083       .  S
C517        C518   1.206       .  T
C519        C520   1.206       .  T
C525        C533   1.444       .  S
C525        C526   1.402       .  A
C525        C530   1.402       .  A
C526        C527   1.401       .  A
C526        H535   1.083       .  S
C527        C528   1.402       .  A
C527        H536   1.083       .  S
C528        C531   1.444       .  S
C528        C529   1.402       .  A
C529        C530   1.401       .  A
C529        H537   1.084       .  S
C530        H538   1.083       .  S
C531        C532   1.208       .  T
C533        C534   1.209       .  T
C539        C547   1.437       .  S
C539        C540   1.402       .  A
C539        C544   1.400       .  A
C540        C541   1.398       .  A
C540        H549   1.083       .  S
C541        C542   1.401       .  A
C541        H550   1.083       .  S
C542        C545   1.437       .  S
C542        C543   1.401       .  A
C543        C544   1.397       .  A
C543        H551   1.084       .  S
C544        H552   1.084       .  S
C545        C546   1.204       .  T
C547        C548   1.204       .  T
C553        C561   1.445       .  S
C553        C554   1.402       .  A
C553        C558   1.403       .  A
C554        C555   1.400       .  A
C554        H563   1.084       .  S
C555        C556   1.402       .  A
C555        H564   1.083       .  S
C556        C559   1.445       .  S
C556        C557   1.403       .  A
C557        C558   1.403       .  A
C557        H565   1.083       .  S
C558        H566   1.083       .  S
C559        C560   1.209       .  T
C561        C562   1.209       .  T
C567        C575   1.439       .  S
C567        C568   1.402       .  A
C567        C572   1.401       .  A
C568        C569   1.399       .  A
C568        H577   1.084       .  S
C569        C570   1.401       .  A
C569        H578   1.083       .  S
C570        C573   1.438       .  S
C570        C571   1.401       .  A
C571        C572   1.398       .  A
C571        H579   1.084       .  S
C572        H580   1.083       .  S
C573        C574   1.205       .  T
C575        C576   1.205       .  T
C581        C589   1.421       .  S
C581        C582   1.399       .  A
C581        C586   1.398       .  A
C582        C583   1.392   1_455  A
C582        H591   1.083       .  S
C583        C584   1.399       .  A
C583        H592   1.083       .  S
C584        C587   1.421       .  S
C584        C585   1.398       .  A
C585        C586   1.391   1_655  A
C585        H593   1.084   1_545  S
C586        H594   1.083   1_545  S
C587        C588   1.195       .  T
C589        C590   1.195       .  T
C595        C603   1.447       .  S
C595        C596   1.403       .  A
C595        C600   1.403       .  A
C596        C597   1.402   1_455  A
C596        H605   1.083       .  S
C597        C598   1.403       .  A
C597        H606   1.083       .  S
C598        C601   1.447       .  S
C598        C599   1.403       .  A
C599        C600   1.402   1_655  A
C599        H607   1.083       .  S
C600        H608   1.083       .  S
C601        C602   1.210       .  T
C603        C604   1.210       .  T
C609        C617   1.439       .  S
C609        C610   1.402       .  A
C609        C614   1.401       .  A
C610        C611   1.399       .  A
C610        H619   1.084       .  S
C611        C612   1.401       .  A
C611        H620   1.083       .  S
C612        C615   1.440       .  S
C612        C613   1.402       .  A
C613        C614   1.399       .  A
C613        H621   1.083       .  S
C614        H622   1.083       .  S
C615        C616   1.206       .  T
C617        C618   1.206       .  T
C623        C631   1.448       .  S
C623        C624   1.402       .  A
C623        C628   1.403       .  A
C624        C625   1.402   1_455  A
C624        H633   1.083       .  S
C625        C626   1.403       .  A
C625        H634   1.083       .  S
C626        C629   1.448       .  S
C626        C627   1.403       .  A
C627        C628   1.403   1_655  A
C627        H635   1.083       .  S
C628        H636   1.083       .  S
C629        C630   1.211       .  T
C631        C632   1.211       .  T
C637        C645   1.439       .  S
C637        C638   1.401       .  A
C637        C642   1.401       .  A
C638        C639   1.400       .  A
C638        H647   1.083       .  S
C639        C640   1.402       .  A
C639        H648   1.083       .  S
C640        C643   1.439       .  S
C640        C641   1.401       .  A
C641        C642   1.398       .  A
C641        H649   1.083       .  S
C642        H650   1.084       .  S
C643        C644   1.206       .  T
C645        C646   1.206       .  T
C651        C659   1.447       .  S
C651        C652   1.403       .  A
C651        C656   1.402       .  A
C652        C653   1.403   1_455  A
C652        H661   1.083       .  S
C653        C654   1.403       .  A
C653        H662   1.083       .  S
C654        C657   1.447       .  S
C654        C655   1.402       .  A
C655        C656   1.400   1_655  A
C655        H663   1.083       .  S
C656        H664   1.084       .  S
C657        C658   1.210       .  T
C659        C660   1.210       .  T
C665        C673   1.445       .  S
C665        C666   1.403       .  A
C665        C670   1.402       .  A
C666        C667   1.402       .  A
C666        H675   1.083       .  S
C667        C668   1.403       .  A
C667        H676   1.083       .  S
C668        C671   1.445       .  S
C668        C669   1.402       .  A
C669        C670   1.400       .  A
C669        H677   1.084       .  S
C670        H678   1.084       .  S
C671        C672   1.209       .  T
C673        C674   1.209       .  T
C679        C687   1.439       .  S
C679        C680   1.401       .  A
C679        C684   1.401       .  A
C680        C681   1.400       .  A
C680        H689   1.083       .  S
C681        C682   1.402       .  A
C681        H690   1.084       .  S
C682        C685   1.440       .  S
C682        C683   1.400       .  A
C683        C684   1.398       .  A
C683        H691   1.083       .  S
C684        H692   1.084       .  S
C685        C686   1.206       .  T
C687        C688   1.205       .  T
C693        C701   1.449       .  S
C693        C694   1.403       .  A
C693        C698   1.403       .  A
C694        C695   1.403   1_455  A
C694        H703   1.084       .  S
C695        C696   1.403       .  A
C695        H704   1.084       .  S
C696        C699   1.449       .  S
C696        C697   1.403       .  A
C697        C698   1.402   1_655  A
C697        H705   1.083       .  S
C698        H706   1.083       .  S
C699        C700   1.212       .  T
C701        C702   1.212       .  T
C707        C715   1.444       .  S
C707        C708   1.403       .  A
C707        C712   1.402       .  A
C708        C709   1.402       .  A
C708        H717   1.083       .  S
C709        C710   1.403       .  A
C709        H718   1.083       .  S
C710        C713   1.444       .  S
C710        C711   1.401       .  A
C711        C712   1.399       .  A
C711        H719   1.084       .  S
C712        H720   1.083       .  S
C713        C714   1.208       .  T
C715        C716   1.208       .  T
C721        C729   1.439       .  S
C721        C722   1.401       .  A
C721        C726   1.401       .  A
C722        C723   1.398       .  A
C722        H731   1.083       .  S
C723        C724   1.400       .  A
C723        H732   1.084       .  S
C724        C727   1.439       .  S
C724        C725   1.402       .  A
C725        C726   1.400       .  A
C725        H733   1.083       .  S
C726        H734   1.084       .  S
C727        C728   1.206       .  T
C729        C730   1.205       .  T
C735        C743   1.426       .  S
C735        C736   1.399       .  A
C735        C740   1.399       .  A
C736        C737   1.395   1_455  A
C736        H745   1.083       .  S
C737        C738   1.399       .  A
C737        H746   1.083       .  S
C738        C741   1.427       .  S
C738        C739   1.399       .  A
C739        C740   1.393   1_655  A
C739        H747   1.083       .  S
C740        H748   1.084       .  S
C741        C742   1.198       .  T
C743        C744   1.198       .  T
C749        C757   1.444       .  S
C749        C750   1.402       .  A
C749        C754   1.402       .  A
C750        C751   1.400       .  A
C750        H759   1.083       .  S
C751        C752   1.402       .  A
C751        H760   1.084       .  S
C752        C755   1.444       .  S
C752        C753   1.402       .  A
C753        C754   1.401       .  A
C753        H761   1.084       .  S
C754        H762   1.083       .  S
C755        C756   1.208       .  T
C757        C758   1.208       .  T
C763        C771   1.440       .  S
C763        C764   1.401       .  A
C763        C768   1.402       .  A
C764        C765   1.400       .  A
C764        H773   1.083       .  S
C765        C766   1.402       .  A
C765        H774   1.084       .  S
C766        C769   1.441       .  S
C766        C767   1.401       .  A
C767        C768   1.398       .  A
C767        H775   1.083       .  S
C768        H776   1.084       .  S
C769        C770   1.206       .  T
C771        C772   1.206       .  T
C777        C785   1.439       .  S
C777        C778   1.401       .  A
C777        C782   1.401       .  A
C778        C779   1.398       .  A
C778        H787   1.084       .  S
C779        C780   1.401       .  A
C779        H788   1.083       .  S
C780        C783   1.439       .  S
C780        C781   1.401       .  A
C781        C782   1.399       .  A
C781        H789   1.084       .  S
C782        H790   1.083       .  S
C783        C784   1.205       .  T
C785        C786   1.206       .  T
C791        C799   1.439       .  S
C791        C792   1.402       .  A
C791        C796   1.401   1_565  A
C792        C793   1.401       .  A
C792        H801   1.083       .  S
C793        C794   1.403       .  A
C793        H802   1.084       .  S
C794        C797   1.440       .  S
C794        C795   1.400   1_565  A
C795        C796   1.397       .  A
C795        H803   1.084       .  S
C796        H804   1.084       .  S
C797        C798   1.206       .  T
C799        C800   1.205       .  T
C805        C813   1.444       .  S
C805        C806   1.402       .  A
C805        C810   1.402       .  A
C806        C807   1.400       .  A
C806        H815   1.084       .  S
C807        C808   1.402       .  A
C807        H816   1.084       .  S
C808        C811   1.443       .  S
C808        C809   1.402       .  A
C809        C810   1.401       .  A
C809        H817   1.083       .  S
C810        H818   1.083       .  S
C811        C812   1.208       .  T
C813        C814   1.208       .  T
C819        C827   1.435       .  S
C819        C820   1.400       .  A
C819        C824   1.401       .  A
C820        C821   1.398       .  A
C820        H829   1.084       .  S
C821        C822   1.401       .  A
C821        H830   1.083       .  S
C822        C825   1.435       .  S
C822        C823   1.400       .  A
C823        C824   1.397       .  A
C823        H831   1.084       .  S
C824        H832   1.083       .  S
C825        C826   1.203       .  T
C827        C828   1.203       .  T
C833        C841   1.447       .  S
C833        C834   1.402       .  A
C833        C838   1.403       .  A
C834        C835   1.401       .  A
C834        H843   1.083       .  S
C835        C836   1.402       .  A
C835        H844   1.083       .  S
C836        C839   1.447       .  S
C836        C837   1.403       .  A
C837        C838   1.403       .  A
C837        H845   1.084       .  S
C838        H846   1.084       .  S
C839        C840   1.210       .  T
C841        C842   1.210       .  T
C847        C855   1.441       .  S
C847        C848   1.401       .  A
C847        C852   1.403       .  A
C848        C849   1.398       .  A
C848        H857   1.084       .  S
C849        C850   1.401       .  A
C849        H858   1.084       .  S
C850        C853   1.440       .  S
C850        C851   1.401       .  A
C851        C852   1.400       .  A
C851        H859   1.083       .  S
C852        H860   1.084       .  S
C853        C854   1.206       .  T
C855        C856   1.207       .  T
C861        C869   1.439       .  S
C861        C862   1.400   1_554  A
C861        C866   1.402       .  A
C862        C863   1.397       .  A
C862        H871   1.084       .  S
C863        C864   1.400   1_556  A
C863        H872   1.083       .  S
C864        C867   1.438       .  S
C864        C865   1.402       .  A
C865        C866   1.400       .  A
C865        H873   1.083       .  S
C866        H874   1.083       .  S
C867        C868   1.205   1_554  T
C869        C870   1.205       .  T
C875        C883   1.441       .  S
C875        C876   1.401   1_554  A
C875        C880   1.402       .  A
C876        C877   1.399       .  A
C876        H885   1.083       .  S
C877        C878   1.401   1_556  A
C877        H886   1.083       .  S
C878        C881   1.441   1_554  S
C878        C879   1.402       .  A
C879        C880   1.400       .  A
C879        H887   1.083       .  S
C880        H888   1.083       .  S
C881        C882   1.206       .  T
C883        C884   1.207       .  T
C889        C897   1.421       .  S
C889        C890   1.399       .  A
C889        C894   1.397   1_545  A
C890        C891   1.394       .  A
C890        H899   1.084       .  S
C891        C892   1.399       .  A
C891        H900   1.084       .  S
C892        C895   1.421       .  S
C892        C893   1.397   1_545  A
C893        C894   1.390       .  A
C893        H901   1.083       .  S
C894        H902   1.083       .  S
C895        C896   1.195       .  T
C897        C898   1.195       .  T
C903        C911   1.438       .  S
C903        C904   1.401   1_565  A
C903        C908   1.401       .  A
C904        C905   1.398       .  A
C904        H913   1.084       .  S
C905        C906   1.400   1_545  A
C905        H914   1.084       .  S
C906        C909   1.438       .  S
C906        C907   1.402       .  A
C907        C908   1.399       .  A
C907        H915   1.083       .  S
C908        H916   1.083       .  S
C909        C910   1.205       .  T
C911        C912   1.205       .  T
C917        C925   1.447       .  S
C917        C918   1.402       .  A
C917        C922   1.403       .  A
C918        C919   1.401       .  A
C918        H927   1.084       .  S
C919        C920   1.402       .  A
C919        H928   1.083       .  S
C920        C923   1.446       .  S
C920        C921   1.403       .  A
C921        C922   1.402       .  A
C921        H929   1.083       .  S
C922        H930   1.083       .  S
C923        C924   1.210       .  T
C925        C926   1.210       .  T
C931        C939   1.440       .  S
C931        C932   1.400       .  A
C931        C936   1.403       .  A
C932        C933   1.398       .  A
C932        H941   1.083       .  S
C933        C934   1.401       .  A
C933        H942   1.084       .  S
C934        C937   1.440       .  S
C934        C935   1.402       .  A
C935        C936   1.401       .  A
C935        H943   1.083       .  S
C936        H944   1.083       .  S
C937        C938   1.206       .  T
C939        C940   1.206       .  T
C945        C953   1.448       .  S
C945        C946   1.403       .  A
C945        C950   1.402       .  A
C946        C947   1.403       .  A
C946        H955   1.084       .  S
C947        C948   1.403       .  A
C947        H956   1.083       .  S
C948        C951   1.448       .  S
C948        C949   1.402       .  A
C949        C950   1.401       .  A
C949        H957   1.083       .  S
C950        H958   1.084       .  S
C951        C952   1.211       .  T
C953        C954   1.211       .  T
C959        C967   1.440       .  S
C959        C960   1.400       .  A
C959        C964   1.402       .  A
C960        C961   1.398       .  A
C960        H969   1.083       .  S
C961        C962   1.401       .  A
C961        H970   1.084       .  S
C962        C965   1.440       .  S
C962        C963   1.401       .  A
C963        C964   1.400       .  A
C963        H971   1.083       .  S
C964        H972   1.084       .  S
C965        C966   1.206       .  T
C967        C968   1.206       .  T
C973        C981   1.443       .  S
C973        C974   1.402       .  A
C973        C978   1.401       .  A
C974        C975   1.401       .  A
C974        H983   1.083       .  S
C975        C976   1.402       .  A
C975        H984   1.083       .  S
C976        C979   1.443       .  S
C976        C977   1.401       .  A
C977        C978   1.399       .  A
C977        H985   1.083       .  S
C978        H986   1.084       .  S
C979        C980   1.208       .  T
C981        C982   1.208       .  T
C987        C995   1.450       .  S
C987        C988   1.403       .  A
C987        C992   1.403       .  A
C988        C989   1.402       .  A
C988        H997   1.083       .  S
C989        C990   1.403       .  A
C989        H998   1.084       .  S
C990        C993   1.450       .  S
C990        C991   1.404       .  A
C991        C992   1.404       .  A
C991        H999   1.083       .  S
C992       H1000   1.083       .  S
C993        C994   1.212       .  T
C995        C996   1.212       .  T
C1001      C1009   1.448       .  S
C1001      C1002   1.403       .  A
C1001      C1006   1.403       .  A
C1002      C1003   1.402       .  A
C1002      H1011   1.083       .  S
C1003      C1004   1.403       .  A
C1003      H1012   1.083       .  S
C1004      C1007   1.447       .  S
C1004      C1005   1.403       .  A
C1005      C1006   1.402       .  A
C1005      H1013   1.084       .  S
C1006      H1014   1.084       .  S
C1007      C1008   1.210       .  T
C1009      C1010   1.211       .  T
C1015      C1023   1.441       .  S
C1015      C1016   1.402       .  A
C1015      C1020   1.402       .  A
C1016      C1017   1.398       .  A
C1016      H1025   1.083       .  S
C1017      C1018   1.401       .  A
C1017      H1026   1.084       .  S
C1018      C1021   1.442       .  S
C1018      C1019   1.403       .  A
C1019      C1020   1.401       .  A
C1019      H1027   1.083       .  S
C1020      H1028   1.084       .  S
C1021      C1022   1.207       .  T
C1023      C1024   1.207       .  T
C1029      C1037   1.449       .  S
C1029      C1030   1.403       .  A
C1029      C1034   1.403       .  A
C1030      C1031   1.402       .  A
C1030      H1039   1.083       .  S
C1031      C1032   1.403       .  A
C1031      H1040   1.083       .  S
C1032      C1035   1.449       .  S
C1032      C1033   1.403       .  A
C1033      C1034   1.403       .  A
C1033      H1041   1.084       .  S
C1034      H1042   1.084       .  S
C1035      C1036   1.211       .  T
C1037      C1038   1.212       .  T
C1043      C1051   1.445       .  S
C1043      C1044   1.403       .  A
C1043      C1048   1.402       .  A
C1044      C1045   1.402       .  A
C1044      H1053   1.084       .  S
C1045      C1046   1.403       .  A
C1045      H1054   1.083       .  S
C1046      C1049   1.445       .  S
C1046      C1047   1.402       .  A
C1047      C1048   1.400       .  A
C1047      H1055   1.083       .  S
C1048      H1056   1.083       .  S
C1049      C1050   1.209       .  T
C1051      C1052   1.209       .  T
C1057      C1065   1.439       .  S
C1057      C1058   1.402       .  A
C1057      C1062   1.401       .  A
C1058      C1059   1.399       .  A
C1058      H1067   1.084       .  S
C1059      C1060   1.401       .  A
C1059      H1068   1.083       .  S
C1060      C1063   1.439       .  S
C1060      C1061   1.402       .  A
C1061      C1062   1.399       .  A
C1061      H1069   1.084       .  S
C1062      H1070   1.083       .  S
C1063      C1064   1.206       .  T
C1065      C1066   1.206       .  T
C1071      C1079   1.443       .  S
C1071      C1072   1.401   1_554  A
C1071      C1076   1.402       .  A
C1072      C1073   1.399       .  A
C1072      H1081   1.084       .  S
C1073      C1074   1.401   1_556  A
C1073      H1082   1.084       .  S
C1074      C1077   1.444   1_554  S
C1074      C1075   1.403       .  A
C1075      C1076   1.402       .  A
C1075      H1083   1.083       .  S
C1076      H1084   1.083       .  S
C1077      C1078   1.208       .  T
C1079      C1080   1.208       .  T
C1085      C1093   1.442   1_554  S
C1085      C1086   1.402       .  A
C1085      C1090   1.401   1_554  A
C1086      C1087   1.400       .  A
C1086      H1095   1.084       .  S
C1087      C1088   1.402       .  A
C1087      H1096   1.083       .  S
C1088      C1091   1.442       .  S
C1088      C1089   1.402   1_554  A
C1089      C1090   1.399       .  A
C1089      H1097   1.084       .  S
C1090      H1098   1.083       .  S
C1091      C1092   1.207       .  T
C1093      C1094   1.207       .  T
C1099      C1107   1.423       .  S
C1099      C1100   1.398       .  A
C1099      C1104   1.399       .  A
C1100      C1101   1.392       .  A
C1100      H1109   1.084       .  S
C1101      C1102   1.399       .  A
C1101      H1110   1.084       .  S
C1102      C1105   1.423       .  S
C1102      C1103   1.399       .  A
C1103      C1104   1.393       .  A
C1103      H1111   1.083       .  S
C1104      H1112   1.083       .  S
C1105      C1106   1.196       .  T
C1107      C1108   1.196       .  T
