geometry optimzed in LAMMPS
_audit_creation_date              2020-12-01 
_audit_creation_method            'lammps2cif' 
_symmetry_space_group_name_H-M    'P1' 
_symmetry_Int_Tables_number       1 
_symmetry_cell_setting            triclinic 
loop_ 
_symmetry_equiv_pos_as_xyz 
  x,y,z 
_cell_length_a                    51.4500817 
_cell_length_b                    51.50275353388836 
_cell_length_c                    34.98115587103528 
_cell_angle_alpha                 90.26234120854465 
_cell_angle_beta                  90.24118027663778 
_cell_angle_gamma                 90.11957204372099 
loop_ 
_atom_site_label 
_atom_site_type_symbol 
_atom_site_fract_x 
_atom_site_fract_y 
_atom_site_fract_z 
_atom_site_charge 
N1          N  0.99210174  0.76031698  0.49369528    -0.03200
C2          C  0.98708424  0.73470061  0.48972475    -0.00600
C3          C  0.00061524  0.71905378  0.02555841    -0.23500
C4          C  0.00495913  0.73777485  0.05297407    -0.23700
C5          C  0.00738245  0.76094505  0.03367264    -0.00700
H6          H  0.99879965  0.69838314  0.03033224     0.13100
H7          H  0.00683480  0.73476434  0.08345612     0.13100
N8          N  0.08279792  0.23699545  0.04524954    -0.03200
C9          C  0.08793980  0.26257142  0.05063820    -0.00600
C10         C  0.09245517  0.27454776  0.01604586    -0.23500
C11         C  0.09319762  0.25262319  0.48511453    -0.23700
C12         C  0.08463788  0.23275577  0.00696986    -0.00700
H13         H  0.09645077  0.29492634  0.01140073     0.13100
H14         H  0.09599392  0.25437754  0.45461390     0.13100
N15         N  0.79588880  0.93992773  0.49007233    -0.03200
C16         C  0.82129302  0.93371904  0.48678035    -0.00600
C17         C  0.83424556  0.93026041  0.02645895    -0.23500
C18         C  0.81465880  0.93343597  0.05268755    -0.23700
C19         C  0.79250260  0.93923494  0.03206478    -0.00700
H20         H  0.85457706  0.92706867  0.03291170     0.13100
H21         H  0.81660029  0.93277973  0.08348318     0.13100
N22         N  0.31796354  0.02214091  0.03661442    -0.03200
C23         C  0.29214332  0.02563370  0.04170167    -0.00600
C24         C  0.28006015  0.03056906  0.00714373    -0.23500
C25         C  0.29766708  0.03275580  0.48599784    -0.23700
C26         C  0.32223269  0.02502278  0.99866954    -0.00700
H27         H  0.25950897  0.03365527  0.00234049     0.13100
H28         H  0.29380252  0.03553668  0.45586192     0.13100
N29         N  0.59142205  0.72841315  0.48499420    -0.03200
C30         C  0.59338005  0.75447721  0.48122777    -0.00600
C31         C  0.58903301  0.76456031  0.01932908    -0.23500
C32         C  0.58685958  0.74437575  0.04476272    -0.23700
C33         C  0.58420735  0.72201062  0.02311333    -0.00700
H34         H  0.59048840  0.78499354  0.02637182     0.13100
H35         H  0.58635809  0.74589650  0.07561294     0.13100
N36         N  0.50038018  0.24982646  0.03501264    -0.03200
C37         C  0.49500580  0.22419892  0.03864921    -0.00600
C38         C  0.49211629  0.21291863  0.00286032    -0.23500
C39         C  0.48677925  0.23434672  0.47973352    -0.23700
C40         C  0.50080699  0.25469612  0.99699117    -0.00700
H41         H  0.48916920  0.19252803  0.99656553     0.13100
H42         H  0.48248389  0.23373267  0.44943371     0.13100
N43         N  0.27599350  0.46195426  0.04290885    -0.03200
C44         C  0.30197519  0.45834945  0.04515638    -0.00600
C45         C  0.31261481  0.45714060  0.00895632    -0.23500
C46         C  0.30052575  0.49557238  0.48355811    -0.23700
C47         C  0.27036908  0.46339737  0.00527295    -0.00700
H48         H  0.33293849  0.45477698  0.00192181     0.13100
H49         H  0.30347917  0.49994890  0.45365967     0.13100
N50         N  0.79836367  0.55459387  0.49296365    -0.03200
C51         C  0.77291676  0.56038350  0.48795044    -0.00600
C52         C  0.76370512  0.55993226  0.02531761    -0.23500
C53         C  0.78272795  0.55763448  0.05287985    -0.23700
C54         C  0.80474719  0.54915808  0.03426876    -0.00700
H55         H  0.74360753  0.56511661  0.03012807     0.13100
H56         H  0.78057418  0.56106635  0.08324044     0.13100
Zr57       Zr  0.57954376  0.52479045  0.25623059     2.17500
O58         O  0.62039352  0.53401247  0.22387120    -0.51000
O59         O  0.57765759  0.56425326  0.29467316    -0.74200
O60         O  0.57359366  0.55720369  0.20639380    -0.81000
O61         O  0.61237351  0.48626465  0.33484737    -0.82800
O62         O  0.53676193  0.54716468  0.17334479    -0.78400
O63         O  0.61819490  0.52088748  0.29549039    -0.90000
O64         O  0.54175538  0.56102557  0.33207894    -0.76000
O65         O  0.53453172  0.53505598  0.25475837    -0.85500
O66         O  0.56274093  0.51172884  0.31667087    -0.85200
O67         O  0.56219704  0.50031397  0.20322994    -0.71900
O68         O  0.58810917  0.47900423  0.26140433    -0.84100
Zr69       Zr  0.50757298  0.45177741  0.26896018     2.26400
Zr70       Zr  0.51663615  0.50983753  0.20354347     2.06300
Zr71       Zr  0.57041502  0.46619438  0.32169055     2.10000
Zr72       Zr  0.51779891  0.52206889  0.31482081     1.78800
O73         O  0.60329290  0.43248226  0.32770132    -0.92900
O74         O  0.48898389  0.55763403  0.29729479    -0.40700
O75         O  0.52499418  0.47621292  0.32185383    -0.77300
O76         O  0.49872781  0.49741204  0.26377943    -0.96000
O77         O  0.52433097  0.46440662  0.20863129    -0.89300
O78         O  0.55261225  0.44144593  0.26998869    -0.92100
C79         C  0.56263156  0.57246677  0.32129197     1.01600
C80         C  0.62562083  0.50557165  0.32221165     1.14500
C81         C  0.55709665  0.56111390  0.17932897     1.05300
O82         O  0.48354895  0.54345205  0.19964147    -0.94300
O83         O  0.47542182  0.48902356  0.18875209    -0.90000
O84         O  0.46990778  0.45406719  0.22732944    -0.83200
C85         C  0.46237877  0.46938079  0.20068741     1.12000
O86         O  0.61167356  0.46181594  0.18085052    -0.96300
Zr87       Zr  0.56926774  0.45450216  0.20981174     1.88900
O88         O  0.51003587  0.41174512  0.23204552    -0.72900
O89         O  0.51531689  0.50050478  0.13526373    -0.52200
O90         O  0.56609019  0.45494462  0.14030426    -0.96900
O91         O  0.59901253  0.41883937  0.22323845    -0.54100
O92         O  0.54437962  0.41612929  0.19174511    -0.73400
C93         C  0.52427774  0.40407375  0.20419170     0.98900
O94         O  0.46610361  0.44428795  0.30043908    -0.62200
O95         O  0.56992408  0.47384638  0.39050482    -0.57100
O96         O  0.51199984  0.42076885  0.32045187    -0.93700
O97         O  0.54982005  0.42884626  0.35175080    -0.92200
O98         O  0.51800503  0.52362722  0.38440266    -0.92500
O99         O  0.47504779  0.51641890  0.34325626    -0.91300
C100        C  0.52879401  0.41573029  0.34652443     1.17800
H101        H  0.57140820  0.52057607  0.33752648     0.33700
H102        H  0.48018857  0.50034607  0.26384475     0.44600
H103        H  0.55520765  0.42308172  0.27388916     0.38100
H104        H  0.56995810  0.50609678  0.17964460     0.34600
H105        H  0.48630805  0.56741482  0.32139445     0.26300
H106        H  0.50430672  0.51433142  0.12421289     0.32300
H107        H  0.54720215  0.45451266  0.13479887     0.38200
H108        H  0.53508402  0.51642316  0.39191587     0.32700
H109        H  0.58065652  0.45970023  0.40129762     0.31500
H110        H  0.59561134  0.41697730  0.31517010     0.33200
H111        H  0.58802837  0.40451191  0.23288352     0.32200
H112        H  0.47281387  0.49737577  0.34521348     0.36200
H113        H  0.46302831  0.42535148  0.29866452     0.28900
H114        H  0.62302591  0.55298632  0.22659075     0.33100
H115        H  0.61457063  0.44680057  0.16361514     0.36000
H116        H  0.58045275  0.48973685  0.39459744     0.28600
H117        H  0.46929990  0.44774628  0.32792106     0.41500
H118        H  0.47898809  0.54433091  0.17214971     0.31500
H119        H  0.49970323  0.56935463  0.28143933     0.39100
H120        H  0.60914659  0.42474159  0.24578116     0.31000
H121        H  0.53306883  0.50428200  0.12600844     0.31100
H122        H  0.61682366  0.53116909  0.19632964     0.31300
Zr123      Zr  0.59527507  0.95871288  0.26118639     2.17500
O124        O  0.60441575  0.91757747  0.22925238    -0.51000
O125        O  0.63373371  0.96132279  0.30153825    -0.74200
O126        O  0.62818014  0.96435870  0.21203049    -0.81000
O127        O  0.55479216  0.92690751  0.33903620    -0.82800
O128        O  0.62034377  0.00167002  0.17968522    -0.78400
O129        O  0.58963676  0.92009262  0.30020663    -0.90000
O130        O  0.63044325  0.99862188  0.33630763    -0.76000
O131        O  0.60550230  0.00384905  0.26011447    -0.85500
O132        O  0.58065035  0.97611986  0.32049610    -0.85200
O133        O  0.57255400  0.97567488  0.20674618    -0.71900
O134        O  0.54949822  0.95012645  0.26367184    -0.84100
Zr135      Zr  0.52152247  0.03027349  0.26863680     2.26400
Zr136      Zr  0.58176111  0.02131790  0.20721688     2.06300
Zr137      Zr  0.53500229  0.96834014  0.32291142     2.10000
Zr138      Zr  0.59064926  0.02106587  0.31916643     1.78800
O139        O  0.50030826  0.93616468  0.32416349    -0.92900
O140        O  0.62359289  0.05342538  0.30389674    -0.40700
O141        O  0.54461706  0.01377938  0.32304407    -0.77300
O142        O  0.56731917  0.03957593  0.26656034    -0.96000
O143        O  0.53612099  0.01328906  0.20923425    -0.89300
O144        O  0.51165791  0.98515582  0.26945361    -0.92100
C145        C  0.64186205  0.97739300  0.32707856     1.01600
C146        C  0.57400925  0.91328099  0.32695228     1.14500
C147        C  0.63367187  0.98106988  0.18610320     1.05300
O148        O  0.61503707  0.05484822  0.20289367    -0.94300
O149        O  0.56107454  0.06220350  0.19077165    -0.90000
O150        O  0.52439058  0.06682958  0.22601268    -0.83200
C151        C  0.54041208  0.07449503  0.20045301     1.12000
O152        O  0.53480086  0.92787988  0.17600004    -0.96300
Zr153      Zr  0.52670537  0.96826627  0.21028860     1.88900
O154        O  0.48295571  0.02712599  0.22850359    -0.72900
O155        O  0.57494007  0.02034131  0.13825712    -0.52200
O156        O  0.52945376  0.97598363  0.14176160    -0.96900
O157        O  0.49552399  0.93322714  0.21963803    -0.54100
O158        O  0.48564040  0.98911514  0.19531275    -0.73400
C159        C  0.47420845  0.01036032  0.20441767     0.98900
O160        O  0.51216497  0.07123664  0.30108642    -0.62200
O161        O  0.54006205  0.96965310  0.39220815    -0.57100
O162        O  0.48807708  0.02546211  0.31674659    -0.93700
O163        O  0.49724252  0.98934934  0.35086407    -0.92200
O164        O  0.59071754  0.01701649  0.38852004    -0.92500
O165        O  0.58348519  0.06184556  0.35301612    -0.91300
C166        C  0.48326393  0.00944521  0.34377159     1.17800
H167        H  0.58910108  0.96779464  0.34185941     0.33700
H168        H  0.57009833  0.05813241  0.26677299     0.44600
H169        H  0.49323583  0.98205709  0.27219818     0.38100
H170        H  0.57904431  0.96778871  0.18357949     0.34600
H171        H  0.63357274  0.05584688  0.32791926     0.26300
H172        H  0.58900115  0.03136277  0.12785145     0.32300
H173        H  0.52091624  0.99297446  0.13773504     0.38200
H174        H  0.60839466  0.02238588  0.39666382     0.32700
H175        H  0.53285226  0.95292920  0.40118942     0.31500
H176        H  0.49964334  0.93036892  0.35108992     0.33200
H177        H  0.47872528  0.94193546  0.22453707     0.32200
H178        H  0.56437968  0.06297387  0.35581668     0.36200
H179        H  0.51406257  0.06745143  0.32868206     0.28900
H180        H  0.62339481  0.91500369  0.23198155     0.33100
H181        H  0.55240101  0.92256535  0.18436282     0.36000
H182        H  0.55899312  0.96827425  0.39686778     0.28600
H183        H  0.52718709  0.08262902  0.29548077     0.41500
H184        H  0.61217302  0.06609689  0.22549796     0.31500
H185        H  0.63579409  0.04437006  0.28658321     0.39100
H186        H  0.50041535  0.92555818  0.24454470     0.31000
H187        H  0.57955087  0.00249066  0.13020778     0.31100
H188        H  0.60161806  0.92091108  0.20168520     0.31300
Zr189      Zr  0.01968445  0.95810084  0.26206127     2.17500
O190        O  0.97922210  0.94828562  0.22841873    -0.51000
O191        O  0.02159817  0.91956647  0.30221254    -0.74200
O192        O  0.02634984  0.92501694  0.21377679    -0.81000
O193        O  0.98560899  0.99840371  0.33716003    -0.82800
O194        O  0.06384814  0.93369303  0.18217399    -0.78400
O195        O  0.98079859  0.96229477  0.29998674    -0.90000
O196        O  0.05724693  0.92410183  0.34029551    -0.76000
O197        O  0.06479305  0.94830609  0.26246165    -0.85500
O198        O  0.03572762  0.97296854  0.32216542    -0.85200
O199        O  0.03740639  0.98108354  0.20861630    -0.71900
O200        O  0.01056821  0.00382387  0.26376912    -0.84100
Zr201      Zr  0.09182201  0.03189751  0.27228733     2.26400
Zr202      Zr  0.08294737  0.97210389  0.21041433     2.06300
Zr203      Zr  0.02763768  0.01845719  0.32365428     2.10000
Zr204      Zr  0.08073821  0.96312269  0.32246613     1.78800
O205        O  0.99574077  0.05331826  0.32233378    -0.92900
O206        O  0.11107359  0.92772214  0.31067566    -0.40700
O207        O  0.07323005  0.00897749  0.32535707    -0.77300
O208        O  0.10050050  0.98609616  0.27057951    -0.96000
O209        O  0.07540785  0.01775321  0.21213415    -0.89300
O210        O  0.04651656  0.04177779  0.27178014    -0.92100
C211        C  0.03658750  0.91213155  0.32948537     1.01600
C212        C  0.97280056  0.97840277  0.32536141     1.14500
C213        C  0.04342930  0.92004211  0.18820931     1.05300
O214        O  0.11604073  0.93854512  0.20579916    -0.94300
O215        O  0.12475540  0.99085766  0.19495227    -0.90000
O216        O  0.13115360  0.02583621  0.23379053    -0.83200
C217        C  0.13848514  0.00991020  0.20751057     1.12000
O218        O  0.99046435  0.01695849  0.17637202    -0.96300
Zr219      Zr  0.03016268  0.02692944  0.21192435     1.88900
O220        O  0.08839444  0.07088436  0.23318813    -0.72900
O221        O  0.08008564  0.97975887  0.14185328    -0.52200
O222        O  0.03882875  0.02519221  0.14352649    -0.96900
O223        O  0.99670935  0.05970358  0.22203074    -0.54100
O224        O  0.05114616  0.06793717  0.19801357    -0.73400
C225        C  0.07200794  0.07961604  0.20860613     0.98900
O226        O  0.13076039  0.04566230  0.30663776    -0.62200
O227        O  0.02540176  0.01432435  0.39296990    -0.57100
O228        O  0.08776530  0.06198681  0.32559160    -0.93700
O229        O  0.04905333  0.05489392  0.35442795    -0.92200
O230        O  0.07577118  0.96571871  0.39158123    -0.92500
O231        O  0.12197721  0.97022053  0.35548886    -0.91300
C232        C  0.07062347  0.06722984  0.35101702     1.17800
H233        H  0.02696011  0.96470906  0.34324183     0.33700
H234        H  0.11899930  0.98298294  0.27128415     0.44600
H235        H  0.04368127  0.06019455  0.27497750     0.38100
H236        H  0.02991283  0.97453587  0.18510038     0.34600
H237        H  0.10830721  0.91545615  0.33199850     0.26300
H238        H  0.08905116  0.99655055  0.13782562     0.32300
H239        H  0.03292791  0.04215965  0.13356220     0.38200
H240        H  0.08568774  0.95075385  0.40164581     0.32700
H241        H  0.01249684  0.02746604  0.40105262     0.31500
H242        H  0.99399591  0.05883756  0.34935173     0.33200
H243        H  0.00502246  0.07322977  0.23816415     0.32200
H244        H  0.13237588  0.98114812  0.33805513     0.36200
H245        H  0.14183605  0.03000542  0.30809974     0.28900
H246        H  0.97635997  0.92943562  0.23200495     0.33100
H247        H  0.98764354  0.03186516  0.15907599     0.36000
H248        H  0.01676901  0.99743858  0.39760243     0.28600
H249        H  0.13992183  0.05770930  0.28928595     0.41500
H250        H  0.12641135  0.94040751  0.22956155     0.31500
H251        H  0.10407964  0.91854659  0.28791713     0.39100
H252        H  0.98394505  0.05128877  0.23910797     0.31000
H253        H  0.09178561  0.96667426  0.13032973     0.31100
H254        H  0.98319530  0.95026178  0.20091136     0.31300
Zr255      Zr  0.99732414  0.53171949  0.26667236     2.17500
O256        O  0.98356454  0.57075819  0.23306627    -0.51000
O257        O  0.96056264  0.52738999  0.30972080    -0.74200
O258        O  0.96297646  0.52215841  0.22130705    -0.81000
O259        O  0.03895640  0.57160970  0.33441152    -0.82800
O260        O  0.97260126  0.48426442  0.19076454    -0.78400
O261        O  0.00048176  0.57213975  0.30200637    -0.90000
O262        O  0.96813427  0.49281775  0.34844845    -0.76000
O263        O  0.99027630  0.48621056  0.27117739    -0.85500
O264        O  0.01554696  0.51884421  0.32616239    -0.85200
O265        O  0.01906462  0.51344079  0.21226746    -0.71900
O266        O  0.04235377  0.54359333  0.26242263    -0.84100
Zr267      Zr  0.07568638  0.46484282  0.27537154     2.26400
Zr268      Zr  0.01258596  0.46763120  0.21799145     2.06300
Zr269      Zr  0.06030708  0.53027445  0.32206703     2.10000
Zr270      Zr  0.00893516  0.47323231  0.33030352     1.78800
O271        O  0.09246912  0.56425409  0.31209425    -0.92900
O272        O  0.97725154  0.43829085  0.32304461    -0.40700
O273        O  0.05411480  0.48431193  0.32895873    -0.77300
O274        O  0.03055642  0.45310844  0.27754056    -0.96000
O275        O  0.05778089  0.47763213  0.21562266    -0.89300
O276        O  0.08270531  0.51047750  0.26993062    -0.92100
C277        C  0.95456944  0.51222634  0.33736960     1.01600
C278        C  0.01741216  0.58226173  0.32458440     1.14500
C279        C  0.95837616  0.50430101  0.19653736     1.05300
O280        O  0.98088827  0.43262760  0.22223871    -0.94300
O281        O  0.03489294  0.42785991  0.20134008    -0.90000
O282        O  0.07268762  0.42597197  0.23517777    -0.83200
C283        C  0.05633588  0.41682799  0.21058143     1.12000
O284        O  0.05352891  0.56057215  0.17156316    -0.96300
Zr285      Zr  0.06463428  0.52290995  0.21028014     1.88900
O286        O  0.11343413  0.46879833  0.23472421    -0.72900
O287        O  0.01605502  0.46669091  0.14849685    -0.52200
O288        O  0.05942497  0.51108482  0.14312249    -0.96900
O289        O  0.09678565  0.55768977  0.21407628    -0.54100
O290        O  0.10520201  0.50174160  0.19332176    -0.73400
C291        C  0.11928516  0.48314784  0.20616919     0.98900
O292        O  0.08869287  0.42611077  0.31052206    -0.62200
O293        O  0.05964564  0.53651732  0.39120592    -0.57100
O294        O  0.10895445  0.47436437  0.32321464    -0.93700
O295        O  0.09977843  0.51375549  0.34985329    -0.92200
O296        O  0.01368917  0.48096993  0.39870965    -0.92500
O297        O  0.02053572  0.43439344  0.36594666    -0.91300
C298        C  0.11375390  0.49337710  0.34612997     1.17800
H299        H  0.00753178  0.52776657  0.34739536     0.33700
H300        H  0.02877090  0.43448974  0.27960532     0.44600
H301        H  0.10100697  0.51464893  0.27105981     0.38100
H302        H  0.01117032  0.51978744  0.18902801     0.34600
H303        H  0.96837050  0.43737594  0.34806532     0.26300
H304        H  0.00114123  0.45602323  0.13970150     0.32300
H305        H  0.06794928  0.49395626  0.14043997     0.38200
H306        H  0.99714905  0.47485173  0.40993931     0.32700
H307        H  0.04193555  0.54283250  0.39705387     0.31500
H308        H  0.09517583  0.57204454  0.33773470     0.33200
H309        H  0.11213329  0.54993307  0.22675953     0.32200
H310        H  0.03967046  0.43323940  0.36371773     0.36200
H311        H  0.08648753  0.43071944  0.33782575     0.28900
H312        H  0.96442266  0.57141312  0.23572864     0.33100
H313        H  0.06668621  0.56113391  0.15099282     0.36000
H314        H  0.06007302  0.51873660  0.40183023     0.28600
H315        H  0.07477514  0.41320009  0.30560680     0.41500
H316        H  0.97675825  0.42814346  0.19533275     0.31500
H317        H  0.96391901  0.44524266  0.30537310     0.39100
H318        H  0.08972862  0.57000799  0.23317796     0.31000
H319        H  0.01181961  0.48451301  0.14005217     0.31100
H320        H  0.98661081  0.56701160  0.20565681     0.31300
C321        C  0.86726424  0.55422774  0.09152914    -0.22200
C322        C  0.87289686  0.52791958  0.09702213     0.09800
C323        C  0.85662908  0.50869627  0.08096335     0.10200
C324        C  0.83511707  0.51627916  0.05904986    -0.17100
C325        C  0.82925774  0.54260594  0.05380804    -0.27500
C326        C  0.84537055  0.56185895  0.07048986     0.18500
C327        C  0.89490195  0.52090791  0.12193710     0.12500
C328        C  0.86148471  0.48029058  0.08818511    -0.11900
H329        H  0.82216344  0.50162255  0.04736825     0.12800
C330        C  0.83984067  0.59049362  0.06731513    -0.22700
H331        H  0.87967287  0.56886866  0.10455827     0.08400
C332        C  0.91990751  0.51637593  0.10706552     0.04800
C333        C  0.94012226  0.50986409  0.13216686    -0.19900
C334        C  0.93574774  0.50789633  0.17159161    -0.12200
C335        C  0.91048670  0.51164949  0.18626213     0.13500
C336        C  0.89038249  0.51840950  0.16119330    -0.22600
C337        C  0.92527661  0.51876322  0.06492561    -0.05700
H338        H  0.95959304  0.50704736  0.12115951     0.15000
C339        C  0.90394504  0.50799220  0.22781378    -0.15900
H340        H  0.87096277  0.52150358  0.17224397     0.09300
H341        H  0.86755976  0.58687984  0.50517234     0.07200
H342        H  0.83696822  0.59880379  0.09633484     0.08400
H343        H  0.83404659  0.59457170  0.51411385     0.07400
H344        H  0.86071729  0.47640866  0.11936170     0.02300
H345        H  0.88091165  0.47473616  0.07723939     0.02800
H346        H  0.84671409  0.46782332  0.07384703     0.06300
H347        H  0.94596133  0.51469766  0.05821585     0.05300
H348        H  0.92073984  0.53875830  0.05528188    -0.00500
H349        H  0.91306195  0.50475707  0.04863932     0.01000
H350        H  0.89705151  0.52665204  0.24008821     0.04700
H351        H  0.92068754  0.50105393  0.24493344     0.06600
H352        H  0.88824955  0.49327844  0.23044533     0.07500
C353        C  0.84673673  0.55550362  0.41299928    -0.22200
C354        C  0.85917283  0.53160786  0.41854282     0.09800
C355        C  0.84956479  0.51421008  0.44618750     0.10200
C356        C  0.82841622  0.52164414  0.46883768    -0.17100
C357        C  0.81676717  0.54605645  0.46464887    -0.27500
C358        C  0.82545611  0.56287563  0.43553602     0.18500
C359        C  0.88332317  0.52610569  0.39711018     0.12500
C360        C  0.86173623  0.48794108  0.45206842    -0.11900
H361        H  0.81735119  0.49902739  0.97851844     0.12800
C362        C  0.81302173  0.58893719  0.42904318    -0.22700
H363        H  0.85423662  0.56874929  0.39170293     0.08400
C364        C  0.88314410  0.52093513  0.35745472     0.04800
C365        C  0.90680939  0.51690555  0.33856185    -0.19900
C366        C  0.93049939  0.51758263  0.35847502    -0.12200
C367        C  0.93063657  0.52253326  0.39830200     0.13500
C368        C  0.90701966  0.52684760  0.41701207    -0.22600
C369        C  0.85804382  0.51905059  0.33529029    -0.05700
H370        H  0.90680919  0.51270800  0.30827608     0.15000
C371        C  0.95521076  0.52405799  0.42190640    -0.15900
H372        H  0.90708918  0.53111815  0.44740989     0.09300
H373        H  0.79260550  0.58629883  0.41963196     0.07200
H374        H  0.82320161  0.60008076  0.40646471     0.08400
H375        H  0.81343981  0.60067811  0.45565647     0.07400
H376        H  0.88214102  0.49015443  0.46192961     0.02300
H377        H  0.86135505  0.47684180  0.42478529     0.02800
H378        H  0.84338119  0.46686948  0.95006490     0.06300
H379        H  0.86143137  0.51386987  0.30485234     0.05300
H380        H  0.84774496  0.53794178  0.33605840    -0.00500
H381        H  0.84546104  0.50385385  0.34800547     0.01000
H382        H  0.95602175  0.54302162  0.43707461     0.04700
H383        H  0.97315792  0.52244473  0.40473039     0.06600
H384        H  0.95518120  0.50830100  0.44346482     0.07500
C385        C  0.71880877  0.56273630  0.41505526    -0.22200
C386        C  0.71829512  0.53679246  0.40304123     0.09800
C387        C  0.73836730  0.51980075  0.41411795     0.10200
C388        C  0.75767254  0.52875428  0.43937671    -0.17100
C389        C  0.75712837  0.55425244  0.45372425    -0.27500
C390        C  0.73808197  0.57175226  0.44015784     0.18500
C391        C  0.69513238  0.52732797  0.38223131     0.12500
C392        C  0.73860904  0.49195955  0.40078391    -0.11900
H393        H  0.77204200  0.51524597  0.45009913     0.12800
C394        C  0.73722973  0.59987253  0.45220661    -0.22700
H395        H  0.70347115  0.57576756  0.40596095     0.08400
C396        C  0.67265476  0.51972122  0.40223533     0.04800
C397        C  0.65060257  0.51187808  0.38164274    -0.19900
C398        C  0.65051146  0.51143486  0.34152217    -0.12200
C399        C  0.67347630  0.51813007  0.32153050     0.13500
C400        C  0.69542515  0.52635540  0.34226013    -0.22600
C401        C  0.67189260  0.52010806  0.44531331    -0.05700
H402        H  0.63305813  0.50676102  0.39696697     0.15000
C403        C  0.67595259  0.51601313  0.27871818    -0.15900
H404        H  0.71295603  0.53185902  0.32719092     0.09300
H405        H  0.71910498  0.60363898  0.46841877     0.07200
H406        H  0.73743974  0.61236897  0.42642760     0.08400
H407        H  0.75410097  0.60564397  0.47015647     0.07400
H408        H  0.73954145  0.49127029  0.36909455     0.02300
H409        H  0.72067437  0.48193759  0.41037485     0.02800
H410        H  0.75561631  0.48125045  0.41231890     0.06300
H411        H  0.65281197  0.51343531  0.45634885     0.05300
H412        H  0.67532887  0.54014902  0.45602107    -0.00500
H413        H  0.68716014  0.50708751  0.45688292     0.01000
H414        H  0.67908049  0.53560569  0.26642972     0.04700
H415        H  0.65877977  0.50700056  0.26483685     0.06600
H416        H  0.69291153  0.50361079  0.27161602     0.07500
C417        C  0.20772955  0.50553505  0.47236183    -0.22200
C418        C  0.20462843  0.48852997  0.44129941     0.09800
C419        C  0.22564979  0.47314511  0.42902564     0.10200
C420        C  0.24897323  0.47396100  0.44966625    -0.17100
C421        C  0.25202863  0.49064327  0.48115880    -0.27500
C422        C  0.23160240  0.50753350  0.49153785     0.18500
C423        C  0.18054749  0.48977402  0.41859460     0.12500
C424        C  0.22384082  0.45678691  0.39323937    -0.11900
H425        H  0.26504303  0.46172361  0.44099057     0.12800
C426        C  0.25102633  0.51589485  0.98131838    -0.22700
H427        H  0.19188624  0.51830550  0.48028639     0.08400
C428        C  0.16087321  0.47079176  0.42155282     0.04800
C429        C  0.13949948  0.47187012  0.39658844    -0.19900
C430        C  0.13713623  0.49207453  0.37007707    -0.12200
C431        C  0.15648595  0.51152477  0.36811521     0.13500
C432        C  0.17816051  0.50993188  0.39217478    -0.22600
C433        C  0.16212851  0.44996577  0.45161361    -0.05700
H434        H  0.12425064  0.45737411  0.39843320     0.15000
C435        C  0.15459452  0.53372386  0.34030716    -0.15900
H436        H  0.19344446  0.52439798  0.39032780     0.09300
H437        H  0.23899547  0.53014143  0.99725967     0.07200
H438        H  0.25617239  0.52422909  0.95312714     0.08400
H439        H  0.26924636  0.51293093  0.99774108     0.07400
H440        H  0.21939873  0.46936372  0.36836114     0.02300
H441        H  0.20828513  0.44201183  0.39604589     0.02800
H442        H  0.24234441  0.44648978  0.38731615     0.06300
H443        H  0.14499578  0.43683723  0.45009661     0.05300
H444        H  0.16260109  0.45910845  0.48041868    -0.00500
H445        H  0.17984569  0.43801663  0.44796640     0.01000
H446        H  0.13775280  0.54615017  0.34761212     0.04700
H447        H  0.15220482  0.52611506  0.31079674     0.06600
H448        H  0.17225738  0.54615826  0.34106079     0.07500
C449        C  0.19070435  0.47375972  0.18290228    -0.22200
C450        C  0.18933920  0.47002148  0.14323469     0.09800
C451        C  0.16492830  0.46934937  0.12470687     0.10200
C452        C  0.14236683  0.47342882  0.14618429    -0.17100
C453        C  0.14366969  0.47766729  0.18577764    -0.27500
C454        C  0.16806181  0.47746747  0.20453964     0.18500
C455        C  0.21369050  0.46847037  0.12108265     0.12500
C456        C  0.16273760  0.46452957  0.08226408    -0.11900
H457        H  0.12357554  0.47336562  0.13202475     0.12800
C458        C  0.17034374  0.48233651  0.24691979    -0.22700
H459        H  0.20958040  0.47432273  0.19676594     0.08400
C460        C  0.22452182  0.49085990  0.10437729     0.04800
C461        C  0.24608820  0.48832403  0.08037531    -0.19900
C462        C  0.25732517  0.46404050  0.07318672    -0.12200
C463        C  0.24688683  0.44169922  0.09076777     0.13500
C464        C  0.22521915  0.44420655  0.11476499    -0.22600
C465        C  0.21289193  0.51731047  0.11110233    -0.05700
H466        H  0.25366663  0.50521755  0.06584989     0.15000
C467        C  0.25729449  0.41489388  0.08317307    -0.15900
H468        H  0.21669845  0.42704289  0.12750245     0.09300
H469        H  0.19093849  0.48266894  0.25656933     0.07200
H470        H  0.16018161  0.46678420  0.26287883     0.08400
H471        H  0.16154361  0.50138838  0.25403862     0.07400
H472        H  0.17136685  0.44539166  0.07506087     0.02300
H473        H  0.17319218  0.47991206  0.06636113     0.02800
H474        H  0.14216908  0.46444105  0.07247983     0.06300
H475        H  0.22393862  0.53274476  0.09612782     0.05300
H476        H  0.21309748  0.52183921  0.14216135    -0.00500
H477        H  0.19254323  0.51773347  0.10049488     0.01000
H478        H  0.26392471  0.40613791  0.11046078     0.04700
H479        H  0.27385101  0.41484715  0.06305752     0.06600
H480        H  0.22915677  0.44071391  0.51100222     0.07500
C481        C  0.39084256  0.45339009  0.18370603    -0.22200
C482        C  0.38836807  0.45976493  0.14508484     0.09800
C483        C  0.41030324  0.46811644  0.12439730     0.10200
C484        C  0.43428787  0.47034273  0.14316362    -0.17100
C485        C  0.43689709  0.46442565  0.18215536    -0.27500
C486        C  0.41485127  0.45556370  0.20261955     0.18500
C487        C  0.36254436  0.45820999  0.12671405     0.12500
C488        C  0.40840399  0.47468019  0.08251688    -0.11900
H489        H  0.45110101  0.47693010  0.12730479     0.12800
C490        C  0.41604761  0.44926292  0.24456632    -0.22700
H491        H  0.37378303  0.44701977  0.19917766     0.08400
C492        C  0.35252386  0.43447722  0.11278944     0.04800
C493        C  0.33020667  0.43469974  0.08965772    -0.19900
C494        C  0.31807566  0.45813512  0.07995890    -0.12200
C495        C  0.32719350  0.48167130  0.09599675     0.13500
C496        C  0.34917229  0.48136195  0.11973441    -0.22600
C497        C  0.36631732  0.40923287  0.12028299    -0.05700
H498        H  0.32344775  0.41678508  0.07657040     0.15000
C499        C  0.31498834  0.50731243  0.08597830    -0.15900
H500        H  0.35699406  0.49944556  0.13089871     0.09300
H501        H  0.39658855  0.44439925  0.25619083     0.07200
H502        H  0.42365511  0.46621813  0.26086591     0.08400
H503        H  0.42867760  0.43212010  0.24903187     0.07400
H504        H  0.39476315  0.49108895  0.07829281     0.02300
H505        H  0.40128393  0.45751659  0.06622321     0.02800
H506        H  0.42753173  0.48046637  0.07061885     0.06300
H507        H  0.35610622  0.39254983  0.10665630     0.05300
H508        H  0.36728064  0.40566673  0.15152390    -0.00500
H509        H  0.38635168  0.41010502  0.10866569     0.01000
H510        H  0.32558836  0.52386810  0.09929312     0.04700
H511        H  0.29478585  0.50777057  0.09664254     0.06600
H512        H  0.31505304  0.51014903  0.05453417     0.07500
C513        C  0.48727883  0.16928047  0.10861764    -0.22200
C514        C  0.51147866  0.17015397  0.12691086     0.09800
C515        C  0.52820799  0.19144428  0.12107924     0.10200
C516        C  0.52099815  0.21068312  0.09484330    -0.17100
C517        C  0.49765605  0.20873650  0.07401102    -0.27500
C518        C  0.48006086  0.18837775  0.08235004     0.18500
C519        C  0.52021916  0.14674024  0.14727522     0.12500
C520        C  0.55417819  0.19307334  0.14099690    -0.11900
H521        H  0.53466365  0.22600097  0.08830189     0.12800
C522        C  0.45387910  0.18574243  0.06324451    -0.22700
H523        H  0.47444748  0.15289887  0.11350820     0.08400
C524        C  0.51367649  0.14206116  0.18561940     0.04800
C525        C  0.52107227  0.11853418  0.20238733    -0.19900
C526        C  0.53446870  0.09940819  0.18140611    -0.12200
C527        C  0.54061692  0.10413087  0.14259037     0.13500
C528        C  0.53361888  0.12789833  0.12624714    -0.22600
C529        C  0.49864592  0.16172063  0.20853886    -0.05700
H530        H  0.51616261  0.11499741  0.23201577     0.15000
C531        C  0.55323808  0.08392032  0.11750209    -0.15900
H532        H  0.53799714  0.13162867  0.09647211     0.09300
H533        H  0.43853692  0.18453063  0.08539807     0.07200
H534        H  0.45338741  0.16772730  0.04567949     0.08400
H535        H  0.44909432  0.20250043  0.04476330     0.07400
H536        H  0.56628906  0.17608956  0.13303002     0.02300
H537        H  0.55129843  0.19322355  0.17242721     0.02800
H538        H  0.56493288  0.21097817  0.13312061     0.06300
H539        H  0.49490979  0.15486391  0.23807570     0.05300
H540        H  0.47960757  0.16544229  0.19457059    -0.00500
H541        H  0.50978083  0.18016934  0.21034488     0.01000
H542        H  0.55465700  0.09042513  0.08735010     0.04700
H543        H  0.54155477  0.06576235  0.11779497     0.06600
H544        H  0.57328896  0.07998442  0.12766153     0.07500
C545        C  0.52724151  0.30677323  0.43786829    -0.22200
C546        C  0.51208269  0.32836940  0.44729821     0.09800
C547        C  0.49273043  0.32622193  0.47560693     0.10200
C548        C  0.48885928  0.30221251  0.49364101    -0.17100
C549        C  0.50348717  0.28036725  0.48319399    -0.27500
C550        C  0.52315081  0.28273831  0.45526463     0.18500
C551        C  0.51514559  0.35189057  0.42369994     0.12500
C552        C  0.47562916  0.34889897  0.48574144    -0.11900
H553        H  0.47376026  0.30021505  0.51495851     0.12800
C554        C  0.54787344  0.26110612  0.94647872    -0.22700
H555        H  0.54198482  0.30855302  0.41595146     0.08400
C556        C  0.53224773  0.37215862  0.43393879     0.04800
C557        C  0.53587668  0.39293046  0.40858105    -0.19900
C558        C  0.52355766  0.39342211  0.37249332    -0.12200
C559        C  0.50719494  0.37224309  0.36187304     0.13500
C560        C  0.50286486  0.35215647  0.38799971    -0.22600
C561        C  0.54731076  0.37137951  0.47093970    -0.05700
H562        H  0.54874457  0.40867959  0.41686490     0.15000
C563        C  0.49526070  0.36957327  0.32255688    -0.15900
H564        H  0.49045444  0.33594141  0.38005940     0.09300
H565        H  0.56776141  0.26845879  0.95266533     0.07200
H566        H  0.53756538  0.25657280  0.41223106     0.08400
H567        H  0.54486616  0.24378316  0.96453125     0.07400
H568        H  0.46488255  0.35545839  0.45996139     0.02300
H569        H  0.48763049  0.36517920  0.49689634     0.02800
H570        H  0.46119764  0.34369707  0.50798069     0.06300
H571        H  0.56010478  0.38863665  0.47437275     0.05300
H572        H  0.55972044  0.35376967  0.47156249    -0.00500
H573        H  0.53377797  0.37085650  0.49551010     0.01000
H574        H  0.48526441  0.35059942  0.31864652     0.04700
H575        H  0.51062689  0.37087850  0.30043624     0.06600
H576        H  0.48047788  0.38485817  0.31804568     0.07500
C577        C  0.52850351  0.30236706  0.09737877    -0.22200
C578        C  0.50642422  0.31038514  0.11753399     0.09800
C579        C  0.48277083  0.29682759  0.11258742     0.10200
C580        C  0.48156844  0.27600005  0.08650493    -0.17100
C581        C  0.50343051  0.26868150  0.06521090    -0.27500
C582        C  0.52734481  0.28152490  0.07152169     0.18500
C583        C  0.50844614  0.33387116  0.14204233     0.12500
C584        C  0.45882862  0.30462974  0.13436277    -0.11900
H585        H  0.46333069  0.26595283  0.08155594     0.12800
C586        C  0.55194856  0.27348293  0.05166743    -0.22700
H587        H  0.54671733  0.31264464  0.10157113     0.08400
C588        C  0.51841171  0.33279347  0.17966271     0.04800
C589        C  0.52227973  0.35600451  0.20030166    -0.19900
C590        C  0.51666381  0.38014171  0.18379952    -0.12200
C591        C  0.50562668  0.38109219  0.14673103     0.13500
C592        C  0.50178271  0.35792168  0.12624780    -0.22600
C593        C  0.52544903  0.30720916  0.19755035    -0.05700
H594        H  0.53057781  0.35539481  0.22882089     0.15000
C595        C  0.49765100  0.40619144  0.12799747    -0.15900
H596        H  0.49395126  0.35864318  0.09743632     0.09300
H597        H  0.56702261  0.26879260  0.07335837     0.07200
H598        H  0.55904569  0.28963933  0.03356035     0.08400
H599        H  0.54924513  0.25602852  0.03345813     0.07400
H600        H  0.45352177  0.32493209  0.12727571     0.02300
H601        H  0.46263181  0.30320426  0.16554529     0.02800
H602        H  0.44199590  0.29193399  0.12725240     0.06300
H603        H  0.53272807  0.30974949  0.22727143     0.05300
H604        H  0.54089730  0.29761134  0.18055417    -0.00500
H605        H  0.50807576  0.29440474  0.19831505     0.01000
H606        H  0.50895714  0.40896837  0.10135959     0.04700
H607        H  0.50071219  0.42343844  0.14656694     0.06600
H608        H  0.47664341  0.40534064  0.12065138     0.07500
C609        C  0.58435423  0.86007341  0.40035548    -0.22200
C610        C  0.58247481  0.83778745  0.37730024     0.09800
C611        C  0.57843425  0.84040356  0.33764086     0.10200
C612        C  0.57659444  0.86537998  0.32178544    -0.17100
C613        C  0.57813729  0.88771467  0.34490181    -0.27500
C614        C  0.58234674  0.88502884  0.38471081     0.18500
C615        C  0.58497363  0.81208045  0.39588594     0.12500
C616        C  0.57563105  0.81685814  0.31231012    -0.11900
H617        H  0.57324428  0.86749568  0.29134239     0.12800
C618        C  0.58555819  0.90793364  0.41136857    -0.22700
H619        H  0.58762199  0.85795077  0.43083432     0.08400
C620        C  0.60958015  0.80102673  0.40305846     0.04800
C621        C  0.61157140  0.77984796  0.42806401    -0.19900
C622        C  0.58949427  0.76958853  0.44590627    -0.12200
C623        C  0.56463053  0.77912649  0.43585082     0.13500
C624        C  0.56268189  0.80028003  0.41084268    -0.22600
C625        C  0.63380412  0.81242529  0.38583003    -0.05700
H626        H  0.63058801  0.77251668  0.43589257     0.15000
C627        C  0.53679863  0.77101272  0.94979866    -0.15900
H628        H  0.54376830  0.80860617  0.40482469     0.09300
H629        H  0.60450054  0.90646509  0.42653914     0.07200
H630        H  0.56970014  0.90787109  0.43280061     0.08400
H631        H  0.58538295  0.92683641  0.39642862     0.07400
H632        H  0.55881664  0.80503316  0.32185188     0.02300
H633        H  0.59351186  0.80489961  0.31383586     0.02800
H634        H  0.57234137  0.82230176  0.28199168     0.06300
H635        H  0.65143472  0.80140444  0.39426538     0.05300
H636        H  0.63628254  0.83284148  0.39549792    -0.00500
H637        H  0.63230213  0.81194987  0.35418122     0.01000
H638        H  0.52693929  0.78739937  0.96448128     0.04700
H639        H  0.53836078  0.75470695  0.97021857     0.06600
H640        H  0.52452800  0.76442784  0.92541910     0.07500
C641        C  0.55360110  0.66848957  0.08134681    -0.22200
C642        C  0.57371306  0.65024379  0.08216878     0.09800
C643        C  0.59615809  0.65428223  0.05985011     0.10200
C644        C  0.59853227  0.67731657  0.03868780    -0.17100
C645        C  0.57894729  0.69621486  0.03961952    -0.27500
C646        C  0.55586458  0.69138734  0.06021393     0.18500
C647        C  0.57075488  0.62727967  0.10711670     0.12500
C648        C  0.61784270  0.63470377  0.05942850    -0.11900
H649        H  0.61613712  0.68109374  0.02270742     0.12800
C650        C  0.53323045  0.70993451  0.06049968    -0.22700
H651        H  0.53613951  0.66499449  0.09782256     0.08400
C652        C  0.57477340  0.62897819  0.14699398     0.04800
C653        C  0.57050136  0.60698998  0.16973106    -0.19900
C654        C  0.56176416  0.58347941  0.15361434    -0.12200
C655        C  0.55791097  0.58187001  0.11348580     0.13500
C656        C  0.56258529  0.60378979  0.09079557    -0.22600
C657        C  0.58354462  0.65399608  0.16550202    -0.05700
H658        H  0.57349232  0.60831215  0.20037966     0.15000
C659        C  0.54939410  0.55707970  0.09413043    -0.15900
H660        H  0.55949642  0.60276387  0.06014611     0.09300
H661        H  0.52981122  0.71691625  0.09012675     0.07200
H662        H  0.51553178  0.69970614  0.05008363     0.08400
H663        H  0.53618050  0.72701191  0.04185149     0.07400
H664        H  0.61049696  0.61584279  0.04828280     0.02300
H665        H  0.62545286  0.63197226  0.08888476     0.02800
H666        H  0.63416558  0.64104695  0.04098227     0.06300
H667        H  0.58600139  0.65190988  0.19690479     0.05300
H668        H  0.56893405  0.66942541  0.16033229    -0.00500
H669        H  0.60247367  0.66008073  0.15328765     0.01000
H670        H  0.52935253  0.55209940  0.10300947     0.04700
H671        H  0.56290966  0.54111250  0.10169813     0.06600
H672        H  0.54923061  0.55893720  0.06250622     0.07500
C673        C  0.60610093  0.67819213  0.41038995    -0.22200
C674        C  0.58129964  0.66775307  0.40383646     0.09800
C675        C  0.55953979  0.67879802  0.42217609     0.10200
C676        C  0.56323102  0.69940836  0.44797345    -0.17100
C677        C  0.58808890  0.70942868  0.45523721    -0.27500
C678        C  0.60974683  0.69895813  0.43595234     0.18500
C679        C  0.57876825  0.64344697  0.38140755     0.12500
C680        C  0.53250388  0.66860671  0.41480112    -0.11900
H681        H  0.54681362  0.70725796  0.46340152     0.12800
C682        C  0.63698585  0.70861341  0.44301536    -0.22700
H683        H  0.62279214  0.66948913  0.39655436     0.08400
C684        C  0.57806740  0.64315122  0.34108746     0.04800
C685        C  0.57375552  0.61948388  0.32177704    -0.19900
C686        C  0.57006155  0.59631771  0.34214257    -0.12200
C687        C  0.57215709  0.59658384  0.38253085     0.13500
C688        C  0.57629625  0.62017759  0.40155401    -0.22600
C689        C  0.58120493  0.66784460  0.31871216    -0.05700
H690        H  0.57240099  0.61918633  0.29084028     0.15000
C691        C  0.57063989  0.57239552  0.40661666    -0.15900
H692        H  0.57740060  0.62048998  0.43253328     0.09300
H693        H  0.64536764  0.71571969  0.41579477     0.07200
H694        H  0.64915606  0.69247270  0.45396729     0.08400
H695        H  0.63785999  0.72468722  0.46414850     0.07400
H696        H  0.53116745  0.64792774  0.42335122     0.02300
H697        H  0.52781162  0.67030586  0.38390080     0.02800
H698        H  0.51769674  0.67964357  0.43116506     0.06300
H699        H  0.57977123  0.66428499  0.28743019     0.05300
H700        H  0.60052577  0.67657300  0.32489681    -0.00500
H701        H  0.56579149  0.68184203  0.32689695     0.01000
H702        H  0.58842500  0.57091043  0.42456780     0.04700
H703        H  0.56938631  0.55428338  0.38958657     0.06600
H704        H  0.55343678  0.57352126  0.42560888     0.07500
C705        C  0.24986514  0.99588685  0.11792175    -0.22200
C706        C  0.23856343  0.01831310  0.13339755     0.09800
C707        C  0.24880044  0.04288036  0.12398158     0.10200
C708        C  0.26828025  0.04463246  0.09610915    -0.17100
C709        C  0.27778468  0.02232683  0.07782782    -0.27500
C710        C  0.26923649  0.99757900  0.08992302     0.18500
C711        C  0.21310828  0.01601517  0.15285003     0.12500
C712        C  0.23804666  0.06725967  0.14173140    -0.11900
H713        H  0.27493540  0.06355115  0.08679709     0.12800
C714        C  0.27867975  0.97268736  0.07204148    -0.22700
H715        H  0.24203405  0.97702654  0.12541098     0.08400
C716        C  0.19004209  0.01355470  0.13110128     0.04800
C717        C  0.16605590  0.01197479  0.14981320    -0.19900
C718        C  0.16441065  0.01341337  0.18980788    -0.12200
C719        C  0.18754474  0.01622053  0.21158289     0.13500
C720        C  0.21167858  0.01733372  0.19279512    -0.22600
C721        C  0.19073155  0.01300262  0.08800499    -0.05700
H722        H  0.14839143  0.00978566  0.13307953     0.15000
C723        C  0.18699108  0.01747855  0.25452647    -0.15900
H724        H  0.22947460  0.01942235  0.20922245     0.09300
H725        H  0.26195309  0.96185996  0.05962402     0.07200
H726        H  0.28810347  0.96052460  0.09423355     0.08400
H727        H  0.29286024  0.97593480  0.04892513     0.07400
H728        H  0.24070627  0.06656613  0.17322516     0.02300
H729        H  0.21701348  0.06899573  0.13501562     0.02800
H730        H  0.24804146  0.08488746  0.13096580     0.06300
H731        H  0.17092817  0.01153559  0.07542073     0.05300
H732        H  0.20210586  0.99601917  0.07798025    -0.00500
H733        H  0.19987687  0.03108981  0.07726181     0.01000
H734        H  0.20687906  0.01786846  0.26698407     0.04700
H735        H  0.17666710  0.00027411  0.26606595     0.06600
H736        H  0.17704094  0.03550185  0.26361689     0.07500
C737        C  0.37243386  0.00475380  0.43229751    -0.22200
C738        C  0.39283118  0.02191624  0.44045025     0.09800
C739        C  0.39003676  0.04069961  0.46958744     0.10200
C740        C  0.36655133  0.04205677  0.48979133    -0.17100
C741        C  0.34601663  0.02492378  0.48152596    -0.27500
C742        C  0.34911413  0.00579813  0.45266054     0.18500
C743        C  0.41673351  0.01988443  0.41741150     0.12500
C744        C  0.41178790  0.05924020  0.47919925    -0.11900
H745        H  0.36409586  0.05666965  0.51187428     0.12800
C746        C  0.33365506  0.98192142  0.94251394    -0.22700
H747        H  0.37486640  0.99021843  0.41006594     0.08400
C748        C  0.43678238  0.00263744  0.42733951     0.04800
C749        C  0.45818476  0.99995215  0.40296881    -0.19900
C750        C  0.46016053  0.01415492  0.36868542    -0.12200
C751        C  0.43986092  0.03183304  0.35921709     0.13500
C752        C  0.41844908  0.03427392  0.38374037    -0.22600
C753        C  0.43545740  0.98694872  0.46355757    -0.05700
H754        H  0.47345533  0.98654855  0.41093436     0.15000
C755        C  0.43994618  0.04795602  0.32329498    -0.15900
H756        H  0.40268443  0.04731420  0.37645857     0.09300
H757        H  0.34253449  0.96268196  0.94821149     0.07200
H758        H  0.31149546  0.98650204  0.46195375     0.08400
H759        H  0.32866434  0.98313021  0.91166132     0.07400
H760        H  0.41678478  0.07090650  0.45364583     0.02300
H761        H  0.42919167  0.04822908  0.48854046     0.02800
H762        H  0.40632861  0.07279131  0.50260309     0.06300
H763        H  0.45274247  0.97428261  0.46704268     0.05300
H764        H  0.41789261  0.97439332  0.46305614    -0.00500
H765        H  0.43449062  0.00013819  0.48868796     0.01000
H766        H  0.42206162  0.05986166  0.32051793     0.04700
H767        H  0.44095915  0.03513044  0.29774340     0.06600
H768        H  0.45666563  0.06160598  0.32379102     0.07500
C769        C  0.42299854  0.03620553  0.13636284    -0.22200
C770        C  0.40222154  0.01937281  0.14411402     0.09800
C771        C  0.40457961  0.00108561  0.17388421     0.10200
C772        C  0.42809534  0.99934176  0.19414905    -0.17100
C773        C  0.44915760  0.01557967  0.18555538    -0.27500
C774        C  0.44644818  0.03466394  0.15684844     0.18500
C775        C  0.37915375  0.01974811  0.11858186     0.12500
C776        C  0.38238930  0.98331987  0.18414487    -0.11900
H777        H  0.43029688  0.98482848  0.21628116     0.12800
C778        C  0.46811796  0.05292448  0.14592358    -0.22700
H779        H  0.42122542  0.05006482  0.11325499     0.08400
C780        C  0.36146926  0.04066998  0.11821746     0.04800
C781        C  0.34078550  0.04038927  0.09192254    -0.19900
C782        C  0.33747003  0.01978878  0.06598839    -0.12200
C783        C  0.35468191  0.99844744  0.06732652     0.13500
C784        C  0.37547794  0.99888332  0.09325216    -0.22600
C785        C  0.36440337  0.06325752  0.14539031    -0.05700
H786        H  0.32757370  0.05671347  0.09060704     0.15000
C787        C  0.35157751  0.97481645  0.04230170    -0.15900
H788        H  0.38909511  0.98283690  0.09355158     0.09300
H789        H  0.46163587  0.07329782  0.15003771     0.07200
H790        H  0.47309576  0.04995305  0.11535866     0.08400
H791        H  0.48606530  0.05011449  0.16298836     0.07400
H792        H  0.37781944  0.97010104  0.15991150     0.02300
H793        H  0.36492987  0.99502969  0.19111704     0.02800
H794        H  0.38714146  0.97114256  0.20933905     0.06300
H795        H  0.34840745  0.07752080  0.14193137     0.05300
H796        H  0.38300870  0.07351037  0.14006111    -0.00500
H797        H  0.36413658  0.05616039  0.17530552     0.01000
H798        H  0.36899907  0.97255808  0.02395794     0.04700
H799        H  0.33421492  0.97582533  0.02371231     0.06600
H800        H  0.34954578  0.95731749  0.06048253     0.07500
C801        C  0.90257974  0.95801265  0.34222155    -0.22200
C802        C  0.90197610  0.95790828  0.38220494     0.09800
C803        C  0.92428366  0.96524572  0.40324208     0.10200
C804        C  0.94680729  0.97266220  0.38372113    -0.17100
C805        C  0.94761153  0.97273533  0.34363962    -0.27500
C806        C  0.92506128  0.96559513  0.32254962     0.18500
C807        C  0.87777504  0.95054456  0.40203387     0.12500
C808        C  0.92432810  0.96507593  0.44633069    -0.11900
H809        H  0.96412089  0.97781854  0.39985388     0.12800
C810        C  0.92358478  0.96659766  0.27953320    -0.22700
H811        H  0.88526618  0.95255734  0.32629866     0.08400
C812        C  0.85903699  0.96932965  0.41192995     0.04800
C813        C  0.83889859  0.96254309  0.43691668    -0.19900
C814        C  0.83747496  0.93752491  0.45250380    -0.12200
C815        C  0.85502121  0.91819712  0.43997238     0.13500
C816        C  0.87503231  0.92499407  0.41488569    -0.22600
C817        C  0.86121711  0.99683623  0.39784182    -0.05700
H818        H  0.82552993  0.97736738  0.44666397     0.15000
C819        C  0.85355276  0.89041547  0.45315728    -0.15900
H820        H  0.88931071  0.91056122  0.40671124     0.09300
H821        H  0.90671681  0.97864954  0.27080701     0.07200
H822        H  0.92092101  0.94666733  0.26790572     0.08400
H823        H  0.94098763  0.97542328  0.26636417     0.07400
H824        H  0.92021591  0.94516778  0.45676664     0.02300
H825        H  0.90921130  0.97851979  0.45723953     0.02800
H826        H  0.94338429  0.97131571  0.45829171     0.06300
H827        H  0.84503844  0.00912301  0.40844967     0.05300
H828        H  0.86068469  0.99697913  0.36611417    -0.00500
H829        H  0.87980191  0.00556149  0.40784914     0.01000
H830        H  0.85190944  0.87736993  0.42790054     0.04700
H831        H  0.83655393  0.88655312  0.47161405     0.06600
H832        H  0.87869794  0.89122964  0.97848010     0.07500
C833        C  0.70030413  0.95913843  0.15090904    -0.22200
C834        C  0.69990195  0.96806730  0.11324835     0.09800
C835        C  0.67805920  0.98157425  0.09944639     0.10200
C836        C  0.65670080  0.98548040  0.12373054    -0.17100
C837        C  0.65679524  0.97623653  0.16160609    -0.27500
C838        C  0.67920876  0.96319052  0.17538421     0.18500
C839        C  0.72276301  0.96269543  0.08907385     0.12500
C840        C  0.67752995  0.99205935  0.05932816    -0.11900
H841        H  0.63980028  0.99567932  0.11296983     0.12800
C842        C  0.68176186  0.95463136  0.21629447    -0.22700
H843        H  0.71740124  0.94903148  0.16123857     0.08400
C844        C  0.74578361  0.97739797  0.09281784     0.04800
C845        C  0.76801462  0.96958204  0.07288646    -0.19900
C846        C  0.76778676  0.94723745  0.04979465    -0.12200
C847        C  0.74459354  0.93272195  0.04562613     0.13500
C848        C  0.72222079  0.94089190  0.06497226    -0.22600
C849        C  0.74694921  0.00106012  0.11825336    -0.05700
H850        H  0.78584968  0.98067508  0.07586176     0.15000
C851        C  0.74306835  0.90785720  0.02289711    -0.15900
H852        H  0.70453285  0.92949332  0.06265837     0.09300
H853        H  0.70156565  0.94731417  0.22291847     0.07200
H854        H  0.66785992  0.93871180  0.22238156     0.08400
H855        H  0.67790793  0.97149052  0.23520580     0.07400
H856        H  0.67948035  0.97588082  0.03846171     0.02300
H857        H  0.69387962  0.00589391  0.05541530     0.02800
H858        H  0.65910023  0.00243347  0.05311011     0.06300
H859        H  0.76632555  0.01058313  0.11730970     0.05300
H860        H  0.74305538  0.99548963  0.14830545    -0.00500
H861        H  0.73216044  0.01536837  0.10885451     0.01000
H862        H  0.73611403  0.89192896  0.04156427     0.04700
H863        H  0.76622745  0.89280315  0.52476568     0.06600
H864        H  0.73145666  0.89148430  0.52118993     0.07500
C865        C  0.74718411  0.93278000  0.41082449    -0.22200
C866        C  0.73704505  0.95795911  0.40931134     0.09800
C867        C  0.74807116  0.97776298  0.43228544     0.10200
C868        C  0.76850078  0.97162914  0.45732382    -0.17100
C869        C  0.77785470  0.94617029  0.46007093    -0.27500
C870        C  0.76726989  0.92655730  0.43629031     0.18500
C871        C  0.71292153  0.96232440  0.38719855     0.12500
C872        C  0.73802867  0.00520169  0.43074886    -0.11900
H873        H  0.77670432  0.98648528  0.47580110     0.12800
C874        C  0.77567725  0.89863760  0.43858523    -0.22700
H875        H  0.73841090  0.91756636  0.39351489     0.08400
C876        C  0.71265969  0.96350295  0.34693220     0.04800
C877        C  0.68901335  0.96785720  0.32789853    -0.19900
C878        C  0.66576284  0.97089488  0.34820043    -0.12200
C879        C  0.66595383  0.96857348  0.38849764     0.13500
C880        C  0.68958827  0.96449744  0.40742966    -0.22600
C881        C  0.73728473  0.96067410  0.32418176    -0.05700
H882        H  0.68879506  0.96951658  0.29718186     0.15000
C883        C  0.64165309  0.96949898  0.41244679    -0.15900
H884        H  0.68982484  0.96279744  0.43833383     0.09300
H885        H  0.78382243  0.89245820  0.41066045     0.07200
H886        H  0.75862707  0.88624042  0.44531024     0.08400
H887        H  0.79053000  0.89523618  0.46092473     0.07400
H888        H  0.71738476  0.00579521  0.43974450     0.02300
H889        H  0.73963202  0.01267079  0.40112431     0.02800
H890        H  0.74923493  0.01833355  0.44998663     0.06300
H891        H  0.73362506  0.96265509  0.29300576     0.05300
H892        H  0.74591087  0.94124842  0.32918318    -0.00500
H893        H  0.75143043  0.97588905  0.33300738     0.01000
H894        H  0.64005457  0.95133698  0.42928235     0.04700
H895        H  0.62361610  0.97118709  0.39529493     0.06600
H896        H  0.64274904  0.98624241  0.43250287     0.07500
C897        C  0.09674730  0.12923708  0.39843492    -0.22200
C898        C  0.08012993  0.13126219  0.42978233     0.09800
C899        C  0.06131561  0.11197805  0.43627272     0.10200
C900        C  0.05965385  0.09078285  0.41113321    -0.17100
C901        C  0.07557934  0.08897348  0.37845729    -0.27500
C902        C  0.09450164  0.10868769  0.37219483     0.18500
C903        C  0.08066976  0.15556252  0.45214118     0.12500
C904        C  0.04248073  0.11424641  0.46898950    -0.11900
H905        H  0.04515899  0.07597324  0.41654828     0.12800
C906        C  0.11161535  0.10932297  0.33731584    -0.22700
H907        H  0.11079117  0.14459047  0.39357038     0.08400
C908        C  0.09833701  0.15961083  0.48246756     0.04800
C909        C  0.09962139  0.18414046  0.49992035    -0.19900
C910        C  0.08367478  0.20455377  0.48751366    -0.12200
C911        C  0.06544536  0.20014392  0.45775807     0.13500
C912        C  0.06421731  0.17562559  0.44048243    -0.22600
C913        C  0.11602535  0.13823070  0.49587401    -0.05700
H914        H  0.11270436  0.19008939  0.02096328     0.15000
C915        C  0.04694470  0.22091788  0.44433815    -0.15900
H916        H  0.05070578  0.17215194  0.41712778     0.09300
H917        H  0.12395437  0.12703673  0.33655003     0.07200
H918        H  0.09947495  0.10926641  0.31098537     0.08400
H919        H  0.12489699  0.09242220  0.33746246     0.07400
H920        H  0.03068112  0.13213588  0.46575697     0.02300
H921        H  0.05330740  0.11519435  0.49647484     0.02800
H922        H  0.02896140  0.09742495  0.47005304     0.06300
H923        H  0.13099380  0.14891183  0.01238038     0.05300
H924        H  0.12897115  0.13211190  0.47219217    -0.00500
H925        H  0.10425252  0.12134639  0.50523353     0.01000
H926        H  0.05774145  0.23706394  0.43087834     0.04700
H927        H  0.03551566  0.22846395  0.46876131     0.06600
H928        H  0.03300269  0.21332109  0.42266259     0.07500
C929        C  0.05935440  0.17939856  0.10115911    -0.22200
C930        C  0.08033972  0.17563392  0.12623449     0.09800
C931        C  0.10120367  0.19344700  0.12631898     0.10200
C932        C  0.10091399  0.21422740  0.10050037    -0.17100
C933        C  0.08031636  0.21757656  0.07458363    -0.27500
C934        C  0.05888200  0.20038582  0.07577207     0.18500
C935        C  0.08036296  0.15224864  0.15082321     0.12500
C936        C  0.12382818  0.19041136  0.15335685    -0.11900
H937        H  0.11730477  0.22739316  0.09943092     0.12800
C938        C  0.03517265  0.20385536  0.05105664    -0.22700
H939        H  0.04325051  0.16577947  0.10132072     0.08400
C940        C  0.06349905  0.14993964  0.18236057     0.04800
C941        C  0.06201677  0.12620299  0.20184756    -0.19900
C942        C  0.07723352  0.10491231  0.19075826    -0.12200
C943        C  0.09493813  0.10757694  0.16020487     0.13500
C944        C  0.09624079  0.13125124  0.14059598    -0.22600
C945        C  0.04704063  0.17245567  0.19530269    -0.05700
H946        H  0.04848267  0.12402372  0.22529814     0.15000
C947        C  0.11192648  0.08562304  0.14652895    -0.15900
H948        H  0.10913195  0.13307566  0.11629875     0.09300
H949        H  0.01758165  0.20449809  0.06931581     0.07200
H950        H  0.03261769  0.19054844  0.53201764     0.08400
H951        H  0.03759716  0.22515429  0.53678721     0.07400
H952        H  0.13395332  0.17180883  0.14760108     0.02300
H953        H  0.11674836  0.19056215  0.18329544     0.02800
H954        H  0.13817641  0.20639761  0.15020030     0.06300
H955        H  0.03541749  0.16751412  0.22095856     0.05300
H956        H  0.03336765  0.17815899  0.17223168    -0.00500
H957        H  0.05974120  0.18923015  0.20262137     0.01000
H958        H  0.10727766  0.08110753  0.11618637     0.04700
H959        H  0.10941650  0.06758690  0.16328270     0.06600
H960        H  0.13265268  0.09153342  0.14865185     0.07500
C961        C  0.10254476  0.31173817  0.12792345    -0.22200
C962        C  0.07735465  0.31690837  0.14087026     0.09800
C963        C  0.05664347  0.30047443  0.12954230     0.10200
C964        C  0.06131300  0.28039831  0.10313764    -0.17100
C965        C  0.08598979  0.27713481  0.08700632    -0.21900
C966        C  0.10708943  0.29216283  0.10077173     0.18500
C967        C  0.07241840  0.34219037  0.15985598     0.12500
C968        C  0.02941843  0.30501333  0.14376584    -0.11900
H969        H  0.04521615  0.26878462  0.09248698     0.12800
C970        C  0.13423744  0.28828315  0.08576945    -0.22700
H971        H  0.11834440  0.32437987  0.13681128     0.08400
C972        C  0.07924673  0.34729519  0.19823340     0.04800
C973        C  0.07410341  0.37194257  0.21392034    -0.19900
C974        C  0.06232604  0.39156544  0.19202899    -0.12200
C975        C  0.05633692  0.38652112  0.15305986     0.13500
C976        C  0.06154758  0.36194808  0.13762326    -0.22600
C977        C  0.09163139  0.32671390  0.22263292    -0.05700
H978        H  0.07889238  0.37575842  0.24362513     0.15000
C979        C  0.04519929  0.40699222  0.12703445    -0.15900
H980        H  0.05707211  0.35800479  0.10782813     0.09300
H981        H  0.14845286  0.30120105  0.10046657     0.07200
H982        H  0.13503217  0.29264672  0.05479964     0.08400
H983        H  0.14039333  0.26791765  0.09047988     0.07400
H984        H  0.02236993  0.32432087  0.13439902     0.02300
H985        H  0.02922523  0.30419037  0.17547094     0.02800
H986        H  0.01565240  0.29013225  0.13261932     0.06300
H987        H  0.09533093  0.33379258  0.25220702     0.05300
H988        H  0.11050975  0.32080166  0.21011069    -0.00500
H989        H  0.07862038  0.30952980  0.22416482     0.01000
H990        H  0.04396664  0.40014046  0.09691617     0.04700
H991        H  0.05772675  0.42457401  0.12767339     0.06600
H992        H  0.02519829  0.41202184  0.13605970     0.07500
C993        C  0.00348348  0.82962928  0.07181120    -0.22200
C994        C  0.02779187  0.83189519  0.08959514     0.09800
C995        C  0.04579347  0.81138388  0.08757521     0.10200
C996        C  0.03854960  0.78836379  0.06897489    -0.17100
C997        C  0.01389231  0.78576171  0.05216393    -0.27500
C998        C  0.99621653  0.80668599  0.05311380     0.18500
C999        C  0.03258754  0.85456460  0.11419084     0.12500
C1000       C  0.07243461  0.81379433  0.10529851    -0.11900
H1001       H  0.05210566  0.77230094  0.06754148     0.12800
C1002       C  0.96926730  0.80514779  0.03624381    -0.22700
H1003       H  0.98973442  0.84550717  0.07385151     0.08400
C1004       C  0.04279958  0.87787976  0.09977938     0.04800
C1005       C  0.04618910  0.89897526  0.12470628    -0.19900
C1006       C  0.03926516  0.89719332  0.16346703    -0.12200
C1007       C  0.02914220  0.87358628  0.17775138     0.13500
C1008       C  0.02599411  0.85254026  0.15279803    -0.22600
C1009       C  0.04999749  0.88042163  0.05826300    -0.05700
H1010       H  0.05396400  0.91704777  0.11378072     0.15000
C1011       C  0.02248033  0.87003407  0.21932719    -0.15900
H1012       H  0.01822869  0.83434670  0.16333453     0.09300
H1013       H  0.96737315  0.81956218  0.01289204     0.07200
H1014       H  0.95473347  0.80961797  0.05869028     0.08400
H1015       H  0.96449812  0.78569254  0.02461643     0.07400
H1016       H  0.07072246  0.81724116  0.13653007     0.02300
H1017       H  0.08301021  0.83029926  0.09220635     0.02800
H1018       H  0.08413217  0.79594084  0.10086045     0.06300
H1019       H  0.05780036  0.90003075  0.05177684     0.05300
H1020       H  0.03257913  0.87706038  0.04004774    -0.00500
H1021       H  0.06508316  0.86590130  0.05082027     0.01000
H1022       H  0.00573442  0.88247559  0.22717444     0.04700
H1023       H  0.03960222  0.87514653  0.23726504     0.06600
H1024       H  0.01699754  0.84964817  0.22577148     0.07500
C1025       C  0.01909796  0.86736690  0.41127217    -0.22200
C1026       C  0.01726252  0.84335529  0.39252594     0.09800
C1027       C  0.02057718  0.84202969  0.35253220     0.10200
C1028       C  0.02652590  0.86480138  0.33227333    -0.17100
C1029       C  0.02921916  0.88873342  0.35124872    -0.27500
C1030       C  0.02501477  0.89008293  0.39115369     0.18500
C1031       C  0.01171976  0.82000068  0.41570360     0.12500
C1032       C  0.01813627  0.81657816  0.33146174    -0.11900
H1033       H  0.02954543  0.86383938  0.30173326     0.12800
C1034       C  0.02611251  0.91554485  0.41252337    -0.22700
H1035       H  0.01601390  0.86825496  0.44189812     0.08400
C1036       C  0.03111711  0.80843966  0.43865095     0.04800
C1037       C  0.02447812  0.78762386  0.46243989    -0.19900
C1038       C  0.99883625  0.77857041  0.46443454    -0.12200
C1039       C  0.97948260  0.78998821  0.44124689     0.13500
C1040       C  0.98622224  0.81042944  0.41684305    -0.22600
C1041       C  0.05865710  0.81840154  0.43862193    -0.05700
H1042       H  0.03908478  0.77897343  0.48072976     0.15000
C1043       C  0.96106991  0.77256843  0.94342856    -0.15900
H1044       H  0.97130341  0.81959186  0.39959932     0.09300
H1045       H  0.02081735  0.91322231  0.44307049     0.07200
H1046       H  0.01232081  0.92954184  0.39948124     0.08400
H1047       H  0.04607580  0.92358828  0.41156390     0.07400
H1048       H  0.99826833  0.80856797  0.33521596     0.02300
H1049       H  0.03253911  0.80254412  0.34286117     0.02800
H1050       H  0.02163338  0.81888463  0.30034738     0.06300
H1051       H  0.07137575  0.80693967  0.45792206     0.05300
H1052       H  0.05913055  0.83890183  0.44852139    -0.00500
H1053       H  0.06669289  0.81719680  0.40926649     0.01000
H1054       H  0.94634849  0.78777820  0.94940809     0.04700
H1055       H  0.95922759  0.75772462  0.96599780     0.06600
H1056       H  0.95658586  0.76338034  0.91539574     0.07500
C1057       C  0.01989956  0.68870668  0.42119595    -0.22200
C1058       C  0.99855737  0.68001254  0.39959288     0.09800
C1059       C  0.97414444  0.69210789  0.40425077     0.10200
C1060       C  0.97128866  0.71147381  0.43228709    -0.17100
C1061       C  0.99231918  0.71902512  0.45536668    -0.27500
C1062       C  0.01711605  0.70810661  0.44904060     0.18500
C1063       C  0.00155133  0.65584229  0.37691135     0.12500
C1064       C  0.95106385  0.68429519  0.38015311    -0.11900
H1065       H  0.95958863  0.71040340  0.95713607     0.12800
C1066       C  0.04073301  0.71546047  0.47240226    -0.22700
H1067       H  0.03857737  0.67926429  0.41782046     0.08400
C1068       C  0.01741938  0.65452408  0.34409754     0.04800
C1069       C  0.02225554  0.63022558  0.32706642    -0.19900
C1070       C  0.01112442  0.60752340  0.34184109    -0.12200
C1071       C  0.99436377  0.60902803  0.37353203     0.13500
C1072       C  0.99004073  0.63313119  0.39101383    -0.22600
C1073       C  0.02890214  0.67870075  0.32689847    -0.05700
H1074       H  0.03478794  0.62889383  0.30230567     0.15000
C1075       C  0.98154276  0.58508854  0.38943958    -0.15900
H1076       H  0.97809734  0.63421525  0.41643126     0.09300
H1077       H  0.05607256  0.72302325  0.45316769     0.07200
H1078       H  0.04826761  0.69805393  0.48739309     0.08400
H1079       H  0.03672268  0.73057521  0.49420116     0.07400
H1080       H  0.94592681  0.66368849  0.38528860     0.02300
H1081       H  0.95575352  0.68691145  0.34945820     0.02800
H1082       H  0.93551546  0.68054520  0.92048623     0.06300
H1083       H  0.04009619  0.67427016  0.30059176     0.05300
H1084       H  0.04225466  0.68826630  0.34759435    -0.00500
H1085       H  0.01306666  0.69236939  0.31924556     0.01000
H1086       H  0.96896709  0.58975721  0.41425792     0.04700
H1087       H  0.99659744  0.57110097  0.39897340     0.06600
H1088       H  0.96921449  0.57578256  0.36711482     0.07500
N1089       N  0.00467551  0.75736808  0.99552689    -0.03200
C1090       C  0.00081724  0.73155732  0.99066506    -0.00600
C1091       C  0.98122042  0.72396456  0.52481875    -0.23500
C1092       C  0.98298851  0.74378468  0.55133224    -0.23700
C1093       C  0.98979890  0.76577661  0.53128766    -0.00700
H1094       H  0.97765250  0.70367298  0.53078313     0.13100
H1095       H  0.98093177  0.74206472  0.58198758     0.13100
N1096       N  0.08590385  0.23567886  0.54323019    -0.03200
C1097       C  0.09166927  0.26121181  0.54707235    -0.00600
C1098       C  0.09574794  0.27220981  0.51161033    -0.23500
C1099       C  0.09076980  0.25559387  0.98843167    -0.23700
C1100       C  0.08698054  0.23045733  0.50522587    -0.00700
H1101       H  0.09950276  0.29245738  0.50555517     0.13100
H1102       H  0.09429887  0.25816318  0.95823160     0.13100
N1103       N  0.79768717  0.93960705  0.99414721    -0.03200
C1104       C  0.82335562  0.93434061  0.99073241    -0.00600
C1105       C  0.83128630  0.92682731  0.52212062    -0.23500
C1106       C  0.81117712  0.92870661  0.54784996    -0.23700
C1107       C  0.78977874  0.93676439  0.52723736    -0.00700
H1108       H  0.85125132  0.92194056  0.52869632     0.13100
H1109       H  0.81224147  0.92540959  0.57834103     0.13100
N1110       N  0.31875892  0.02500882  0.54121864    -0.03200
C1111       C  0.29316087  0.02830399  0.54845330    -0.00600
C1112       C  0.27967255  0.03299590  0.51497081    -0.23500
C1113       C  0.29921160  0.03027723  0.97976885    -0.23700
C1114       C  0.32144842  0.02765781  0.50288159    -0.00700
H1115       H  0.25892021  0.03574364  0.51192086     0.13100
H1116       H  0.29664725  0.03338779  0.94941486     0.13100
N1117       N  0.58504776  0.72765410  0.98541342    -0.03200
C1118       C  0.58771886  0.75372447  0.98317718    -0.00600
C1119       C  0.59662039  0.76603493  0.51666114    -0.23500
C1120       C  0.59637675  0.74634307  0.54316119    -0.23700
C1121       C  0.59305841  0.72348961  0.52288052    -0.00700
H1122       H  0.59790108  0.78662919  0.52266604     0.13100
H1123       H  0.59737448  0.74852345  0.57391199     0.13100
N1124       N  0.50020967  0.24859167  0.53737811    -0.03200
C1125       C  0.49198583  0.22374180  0.54051235    -0.00600
C1126       C  0.48377170  0.21438027  0.50534480    -0.23500
C1127       C  0.49550428  0.23231598  0.97647644    -0.23700
C1128       C  0.49693719  0.25504248  0.50019052    -0.00700
H1129       H  0.47728867  0.19485320  0.49878177     0.13100
H1130       H  0.49511606  0.23016804  0.94569119     0.13100
N1131       N  0.28087303  0.48562362  0.53916472    -0.03200
C1132       C  0.30667804  0.48904406  0.54532063    -0.00600
C1133       C  0.31925947  0.49468896  0.51150901    -0.23500
C1134       C  0.29244981  0.46038166  0.98351587    -0.23700
C1135       C  0.27721103  0.49043157  0.50136219    -0.00700
H1136       H  0.33988347  0.49789177  0.50770434     0.13100
H1137       H  0.29372752  0.46062359  0.95265479     0.13100
N1138       N  0.79998954  0.54605967  0.99648885    -0.03200
C1139       C  0.77489303  0.55289453  0.99085379    -0.00600
C1140       C  0.76179500  0.56687388  0.52266756    -0.23500
C1141       C  0.78097615  0.56472345  0.54993256    -0.23700
C1142       C  0.80313809  0.55713045  0.53090863    -0.00700
H1143       H  0.74146557  0.57078154  0.52798937     0.13100
H1144       H  0.77868313  0.56704575  0.58049074     0.13100
Zr1145     Zr  0.58222163  0.52530181  0.75522417     2.17500
O1146       O  0.62375771  0.53526037  0.72539552    -0.51000
O1147       O  0.57875148  0.56474107  0.79332065    -0.74200
O1148       O  0.57749347  0.55780719  0.70554559    -0.81000
O1149       O  0.61496599  0.48522260  0.83245748    -0.82800
O1150       O  0.54149474  0.54815193  0.67040141    -0.78400
O1151       O  0.62008086  0.52135711  0.79598715    -0.90000
O1152       O  0.54271474  0.56069306  0.83029594    -0.76000
O1153       O  0.53718267  0.53518355  0.75308936    -0.85500
O1154       O  0.56495863  0.51155843  0.81487119    -0.85200
O1155       O  0.56591057  0.50133319  0.70110279    -0.71900
O1156       O  0.59101841  0.47957815  0.75917249    -0.84100
Zr1157     Zr  0.51020942  0.45205778  0.76360522     2.26400
Zr1158     Zr  0.52040509  0.51084588  0.70009818     2.06300
Zr1159     Zr  0.57266070  0.46606427  0.81860949     2.10000
Zr1160     Zr  0.51994376  0.52126103  0.81255454     1.78800
O1161       O  0.60610291  0.43347142  0.82930339    -0.92900
O1162       O  0.48994211  0.55656520  0.79867872    -0.40700
O1163       O  0.52706319  0.47536166  0.81795822    -0.77300
O1164       O  0.50192732  0.49780173  0.75976383    -0.96000
O1165       O  0.52785242  0.46520023  0.70397663    -0.89300
O1166       O  0.55532521  0.44193301  0.76588891    -0.92100
C1167       C  0.56325281  0.57267571  0.81950401     1.01600
C1168       C  0.62788769  0.50517522  0.82130637     1.14500
C1169       C  0.56178064  0.56199916  0.67764286     1.05300
O1170       O  0.48904172  0.54577492  0.69243178    -0.94300
O1171       O  0.47768459  0.49262617  0.68702446    -0.90000
O1172       O  0.47102581  0.45771666  0.72559198    -0.83200
C1173       C  0.46376544  0.47386875  0.69983853     1.12000
O1174       O  0.61451272  0.46349542  0.67565010    -0.96300
Zr1175     Zr  0.57294699  0.45540768  0.70671508     1.88900
O1176       O  0.51274465  0.41329008  0.72391696    -0.72900
O1177       O  0.52021665  0.49824170  0.63290984    -0.52200
O1178       O  0.56904320  0.45453870  0.63727157    -0.96900
O1179       O  0.60536668  0.42273438  0.72301595    -0.54100
O1180       O  0.55125391  0.41446832  0.69211071    -0.73400
C1181       C  0.52957399  0.40368317  0.70088548     0.98900
O1182       O  0.46892349  0.44267702  0.79454482    -0.62200
O1183       O  0.56876729  0.47664902  0.88632221    -0.57100
O1184       O  0.51496660  0.41988270  0.81364255    -0.93700
O1185       O  0.55296768  0.42713758  0.84501223    -0.92200
O1186       O  0.52201613  0.52006998  0.88214356    -0.92500
O1187       O  0.47669350  0.51493475  0.83914388    -0.91300
C1188       C  0.53189947  0.41421759  0.83926924     1.17800
H1189       H  0.57333703  0.52023099  0.83614565     0.33700
H1190       H  0.48345617  0.50106915  0.75988555     0.44600
H1191       H  0.55804588  0.42354673  0.76938202     0.38100
H1192       H  0.57404131  0.50735643  0.67792382     0.34600
H1193       H  0.49005665  0.56749697  0.82204252     0.26300
H1194       H  0.50549376  0.50789151  0.62152510     0.32300
H1195       H  0.55037112  0.45127765  0.63220164     0.38200
H1196       H  0.51639156  0.50231310  0.88907352     0.32700
H1197       H  0.55642977  0.46375213  0.89675945     0.31500
H1198       H  0.60612093  0.43063169  0.85728480     0.33200
H1199       H  0.59548759  0.40798360  0.73377522     0.32200
H1200       H  0.47571179  0.49614050  0.84480793     0.36200
H1201       H  0.46572568  0.42393524  0.79027141     0.28900
H1202       H  0.62603186  0.55426803  0.72828293     0.33100
H1203       H  0.61805568  0.44781226  0.66004889     0.36000
H1204       H  0.58578131  0.47188506  0.89756823     0.28600
H1205       H  0.47215354  0.44451356  0.82235017     0.41500
H1206       H  0.47906260  0.54580707  0.71657237     0.31500
H1207       H  0.49888345  0.56724750  0.77927063     0.39100
H1208       H  0.61490183  0.43019435  0.74513653     0.31000
H1209       H  0.53592316  0.50641156  0.62197868     0.31100
H1210       H  0.62104783  0.53235251  0.69766439     0.31300
Zr1211     Zr  0.59798004  0.95772010  0.76292573     2.17500
O1212       O  0.60978167  0.91629336  0.73382487    -0.51000
O1213       O  0.63707478  0.96162110  0.80200100    -0.74200
O1214       O  0.63030888  0.96321101  0.71319944    -0.81000
O1215       O  0.55747662  0.92584729  0.84083890    -0.82800
O1216       O  0.62043618  0.99911949  0.67846095    -0.78400
O1217       O  0.59211089  0.91908688  0.80166348    -0.90000
O1218       O  0.63320002  0.99866555  0.83712667    -0.76000
O1219       O  0.60711717  0.00295851  0.75887800    -0.85500
O1220       O  0.58429713  0.97589100  0.82216358    -0.85200
O1221       O  0.57378453  0.97301457  0.70857456    -0.71900
O1222       O  0.55240827  0.94828650  0.76775585    -0.84100
Zr1223     Zr  0.52362084  0.02818891  0.76989979     2.26400
Zr1224     Zr  0.58208084  0.01883499  0.70610410     2.06300
Zr1225     Zr  0.53867629  0.96783856  0.82659208     2.10000
Zr1226     Zr  0.59360200  0.02095094  0.81811056     1.78800
O1227       O  0.50417280  0.93608208  0.83590108    -0.92900
O1228       O  0.63006745  0.04967600  0.80448707    -0.40700
O1229       O  0.54778630  0.01322833  0.82406194    -0.77300
O1230       O  0.56914037  0.03817064  0.76530952    -0.96000
O1231       O  0.53693769  0.00972174  0.71084559    -0.89300
O1232       O  0.51418837  0.98308999  0.77331057    -0.92100
C1233       C  0.64509893  0.97777931  0.82749098     1.01600
C1234       C  0.57647736  0.91216702  0.82830332     1.14500
C1235       C  0.63451910  0.97923073  0.68591733     1.05300
O1236       O  0.61294812  0.05459346  0.70207474    -0.94300
O1237       O  0.55828509  0.05726617  0.68540926    -0.90000
O1238       O  0.52404429  0.06350861  0.72516207    -0.83200
C1239       C  0.53813869  0.06988134  0.69659432     1.12000
O1240       O  0.53850742  0.92378007  0.68254912    -0.96300
Zr1241     Zr  0.52817389  0.96460599  0.71458582     1.88900
O1242       O  0.48463989  0.02401109  0.73099489    -0.72900
O1243       O  0.57579992  0.01610990  0.63710279    -0.52200
O1244       O  0.52648212  0.96629467  0.64499212    -0.96900
O1245       O  0.49633180  0.93175469  0.73246728    -0.54100
O1246       O  0.48770159  0.98594380  0.69791025    -0.73400
C1247       C  0.47618356  0.00719138  0.70676038     0.98900
O1248       O  0.51574328  0.06934332  0.80258796    -0.62200
O1249       O  0.54816088  0.97259902  0.89458676    -0.57100
O1250       O  0.49108054  0.02439043  0.81920768    -0.93700
O1251       O  0.50059745  0.98866436  0.85424122    -0.92200
O1252       O  0.58978792  0.02054359  0.88751728    -0.92500
O1253       O  0.58787554  0.06424669  0.84499631    -0.91300
C1254       C  0.48652320  0.00860742  0.84659739     1.17800
H1255       H  0.59315342  0.96792953  0.84345326     0.33700
H1256       H  0.57162296  0.05675349  0.76427071     0.44600
H1257       H  0.49583989  0.98004650  0.77698982     0.38100
H1258       H  0.57998755  0.96465959  0.68558774     0.34600
H1259       H  0.64207502  0.03914445  0.78874406     0.26300
H1260       H  0.59162723  0.02397404  0.62600891     0.32300
H1261       H  0.52220159  0.98455714  0.63892957     0.38200
H1262       H  0.60721111  0.01561686  0.89710660     0.32700
H1263       H  0.53594265  0.96058264  0.90732200     0.31500
H1264       H  0.50364420  0.93330387  0.86387637     0.33200
H1265       H  0.48076146  0.94156483  0.74058122     0.32200
H1266       H  0.56919876  0.06807263  0.84122767     0.36200
H1267       H  0.51971912  0.06587927  0.82981430     0.28900
H1268       H  0.62878400  0.91468885  0.73776525     0.33100
H1269       H  0.52194770  0.91753903  0.67123357     0.36000
H1270       H  0.56546459  0.96464006  0.89837621     0.28600
H1271       H  0.53000655  0.08094618  0.79433728     0.41500
H1272       H  0.62794051  0.04902618  0.71782167     0.31500
H1273       H  0.62299235  0.06273468  0.78658739     0.39100
H1274       H  0.50327811  0.92415165  0.75634938     0.31000
H1275       H  0.57710130  0.99739557  0.63083426     0.31100
H1276       H  0.60752626  0.91868370  0.70593568     0.31300
Zr1277     Zr  0.01992681  0.95835122  0.76408562     2.17500
O1278       O  0.97897016  0.94820225  0.73189473    -0.51000
O1279       O  0.02186452  0.91960562  0.80324991    -0.74200
O1280       O  0.02515385  0.92582726  0.71483110    -0.81000
O1281       O  0.98619235  0.99987644  0.83861542    -0.82800
O1282       O  0.06293706  0.93287980  0.68313908    -0.78400
O1283       O  0.98103983  0.96343505  0.80218527    -0.90000
O1284       O  0.05777158  0.92335216  0.84107930    -0.76000
O1285       O  0.06493840  0.94763095  0.76529109    -0.85500
O1286       O  0.03599909  0.97335110  0.82407633    -0.85200
O1287       O  0.03826587  0.98050209  0.71026795    -0.71900
O1288       O  0.01116482  0.00404277  0.76574862    -0.84100
Zr1289     Zr  0.09235649  0.03161712  0.77310600     2.26400
Zr1290     Zr  0.08374087  0.97055595  0.71282967     2.06300
Zr1291     Zr  0.02859871  0.01896985  0.82535533     2.10000
Zr1292     Zr  0.08083098  0.96321399  0.82507241     1.78800
O1293       O  0.99771036  0.05470558  0.82537300    -0.92900
O1294       O  0.11378685  0.92975990  0.81706880    -0.40700
O1295       O  0.07408166  0.00927864  0.82702792    -0.77300
O1296       O  0.10087911  0.98562608  0.77284308    -0.96000
O1297       O  0.07589201  0.01635338  0.71340024    -0.89300
O1298       O  0.04720020  0.04175587  0.77265965    -0.92100
C1299       C  0.03702497  0.91163068  0.82987671     1.01600
C1300       C  0.97316090  0.97993975  0.82715275     1.14500
C1301       C  0.04181388  0.92015847  0.68905602     1.05300
O1302       O  0.11683528  0.93687284  0.71595306    -0.94300
O1303       O  0.12570455  0.98984770  0.69767320    -0.90000
O1304       O  0.13204925  0.02486533  0.73652948    -0.83200
C1305       C  0.13949827  0.00879627  0.71062859     1.12000
O1306       O  0.98958598  0.01608115  0.68167384    -0.96300
Zr1307     Zr  0.03070605  0.02629088  0.71327050     1.88900
O1308       O  0.08962959  0.06940461  0.73107182    -0.72900
O1309       O  0.08528841  0.97362929  0.64341893    -0.52200
O1310       O  0.03538680  0.02602271  0.64401272    -0.96900
O1311       O  0.99821401  0.05968260  0.72559838    -0.54100
O1312       O  0.05248738  0.06609122  0.69583271    -0.73400
C1313       C  0.07350083  0.07768938  0.70576165     0.98900
O1314       O  0.13063280  0.04734794  0.80757014    -0.62200
O1315       O  0.02525163  0.01174067  0.89394275    -0.57100
O1316       O  0.08793090  0.06360219  0.82394502    -0.93700
O1317       O  0.05043785  0.05554899  0.85576370    -0.92200
O1318       O  0.07325997  0.96588437  0.89365279    -0.92500
O1319       O  0.12065474  0.97188399  0.86079242    -0.91300
C1320       C  0.07129553  0.06874348  0.85015003     1.17800
H1321       H  0.02711673  0.96517054  0.84512432     0.33700
H1322       H  0.11936333  0.98246050  0.77412703     0.44600
H1323       H  0.04448353  0.06022787  0.77533501     0.38100
H1324       H  0.03075056  0.97396907  0.68676237     0.34600
H1325       H  0.11122575  0.91790979  0.83895292     0.26300
H1326       H  0.09149060  0.99147657  0.63825651     0.32300
H1327       H  0.05425902  0.02390284  0.63963763     0.38200
H1328       H  0.07820812  0.94860683  0.90358981     0.32700
H1329       H  0.04344915  0.01145627  0.90322679     0.31500
H1330       H  0.99504139  0.05885439  0.85273829     0.33200
H1331       H  0.00807457  0.07505339  0.73468647     0.32200
H1332       H  0.12604908  0.98944931  0.85255795     0.36200
H1333       H  0.14161107  0.03185291  0.81171448     0.28900
H1334       H  0.97701842  0.92909511  0.73324200     0.33100
H1335       H  0.98603831  0.03087978  0.66445856     0.36000
H1336       H  0.01798811  0.02807560  0.90437383     0.28600
H1337       H  0.14039407  0.05823180  0.78927775     0.41500
H1338       H  0.10719724  0.92072102  0.72177396     0.31500
H1339       H  0.10795591  0.91958556  0.79453975     0.39100
H1340       H  0.98873996  0.05351950  0.74840247     0.31000
H1341       H  0.09996272  0.96232258  0.63588838     0.31100
H1342       H  0.98194555  0.95198161  0.70452637     0.31300
Zr1343     Zr  0.99699473  0.53113893  0.76510859     2.17500
O1344       O  0.98112971  0.57276255  0.74168546    -0.51000
O1345       O  0.95967317  0.52459315  0.80614882    -0.74200
O1346       O  0.96401948  0.52558849  0.71595914    -0.81000
O1347       O  0.03791246  0.56452534  0.84157606    -0.82800
O1348       O  0.97225736  0.48867556  0.68246994    -0.78400
O1349       O  0.00190738  0.56956488  0.80432843    -0.90000
O1350       O  0.96750816  0.48919970  0.84299940    -0.76000
O1351       O  0.98915069  0.48569981  0.76295419    -0.85500
O1352       O  0.01412894  0.51418206  0.82309283    -0.85200
O1353       O  0.01923309  0.51655536  0.70882445    -0.71900
O1354       O  0.04222256  0.54263073  0.76572345    -0.84100
Zr1355     Zr  0.07498851  0.46386945  0.76527913     2.26400
Zr1356     Zr  0.01222924  0.47046355  0.70808419     2.06300
Zr1357     Zr  0.05933238  0.52443291  0.82334092     2.10000
Zr1358     Zr  0.00698031  0.46874084  0.82043304     1.78800
O1359       O  0.09198718  0.55868118  0.82511644    -0.92900
O1360       O  0.97385977  0.43606903  0.80670199    -0.40700
O1361       O  0.05251462  0.47854449  0.82131706    -0.77300
O1362       O  0.02968910  0.45238757  0.76570299    -0.96000
O1363       O  0.05745800  0.48110065  0.70777457    -0.89300
O1364       O  0.08239711  0.50952583  0.76830710    -0.92100
C1365       C  0.95392857  0.50893724  0.83322384     1.01600
C1366       C  0.01773017  0.57708551  0.83052559     1.14500
C1367       C  0.95860210  0.50892326  0.68976614     1.05300
O1368       O  0.98060894  0.43528095  0.71006662    -0.94300
O1369       O  0.03310928  0.43016926  0.68926550    -0.90000
O1370       O  0.07082936  0.42655505  0.72288494    -0.83200
C1371       C  0.05405977  0.41817507  0.69845343     1.12000
O1372       O  0.05277347  0.56841823  0.68339912    -0.96300
Zr1373     Zr  0.06473916  0.52660336  0.71075633     1.88900
O1374       O  0.11207833  0.47010285  0.72284861    -0.72900
O1375       O  0.01552727  0.47113796  0.63861162    -0.52200
O1376       O  0.06080800  0.52229429  0.64157229    -0.96900
O1377       O  0.09714712  0.56051132  0.72173880    -0.54100
O1378       O  0.10513543  0.50710702  0.68983006    -0.73400
C1379       C  0.11868909  0.48688812  0.69758124     0.98900
O1380       O  0.08837078  0.42382704  0.79701175    -0.62200
O1381       O  0.05529501  0.52373264  0.89280196    -0.57100
O1382       O  0.10765132  0.46848778  0.81529659    -0.93700
O1383       O  0.09718034  0.50371615  0.85123804    -0.92200
O1384       O  0.01288543  0.47171203  0.88944316    -0.92500
O1385       O  0.01498456  0.42719732  0.85127221    -0.91300
C1386       C  0.11140484  0.48389432  0.84376016     1.17800
H1387       H  0.00589330  0.52188501  0.84512846     0.33700
H1388       H  0.02778656  0.43372621  0.76533521     0.44600
H1389       H  0.10071139  0.51345476  0.77056276     0.38100
H1390       H  0.01174115  0.52441064  0.68631681     0.34600
H1391       H  0.96144425  0.43742116  0.82816588     0.26300
H1392       H  0.99985333  0.46183331  0.62931024     0.32300
H1393       H  0.07762187  0.52854500  0.63141858     0.38200
H1394       H  0.99669678  0.46448134  0.90035442     0.32700
H1395       H  0.03652860  0.52604248  0.89785183     0.31500
H1396       H  0.09762920  0.55949683  0.85219457     0.33200
H1397       H  0.11355968  0.55126262  0.72736252     0.32200
H1398       H  0.03113880  0.42067861  0.83936134     0.36200
H1399       H  0.08320638  0.42620727  0.82404738     0.28900
H1400       H  0.96210936  0.57248070  0.74592206     0.33100
H1401       H  0.06589444  0.57202933  0.66347613     0.36000
H1402       H  0.05877550  0.50552623  0.90016461     0.28600
H1403       H  0.07644652  0.41004963  0.78776960     0.41500
H1404       H  0.97342170  0.43429236  0.68380287     0.31500
H1405       H  0.96414440  0.44282519  0.78440033     0.39100
H1406       H  0.09216448  0.56852261  0.74641188     0.31000
H1407       H  0.01260214  0.48947702  0.63142680     0.31100
H1408       H  0.98323794  0.57213464  0.71357645     0.31300
C1409       C  0.87210015  0.55511525  0.57004246    -0.22200
C1410       C  0.87093397  0.53259451  0.59237115     0.09800
C1411       C  0.84783020  0.51781219  0.59324652     0.10200
C1412       C  0.82621665  0.52616830  0.57221987    -0.17100
C1413       C  0.82716986  0.54896458  0.55053612    -0.27500
C1414       C  0.85037910  0.56362370  0.54925945     0.18500
C1415       C  0.89345925  0.52581318  0.61673520     0.12500
C1416       C  0.84598311  0.49324073  0.61631579    -0.11900
H1417       H  0.80833980  0.51499666  0.57293158     0.12800
C1418       C  0.85255964  0.58877081  0.52773467    -0.22700
H1419       H  0.88981024  0.56656569  0.56983558     0.08400
C1420       C  0.91626609  0.51483504  0.60145258     0.04800
C1421       C  0.93709834  0.50910040  0.62605291    -0.19900
C1422       C  0.93548103  0.51390923  0.66557774    -0.12200
C1423       C  0.91206829  0.52385759  0.68093334     0.13500
C1424       C  0.89157512  0.53012642  0.65617263    -0.22600
C1425       C  0.91843521  0.50887514  0.55937807    -0.05700
H1426       H  0.95487331  0.50118099  0.61429028     0.15000
C1427       C  0.90794399  0.52660326  0.72340859    -0.15900
H1428       H  0.87376664  0.53818236  0.66764523     0.09300
H1429       H  0.85659187  0.60037018  0.05368957     0.07200
H1430       H  0.85833025  0.60456933  0.54776236     0.08400
H1431       H  0.82226381  0.59479632  0.05013896     0.07400
H1432       H  0.84878381  0.49762400  0.64713749     0.02300
H1433       H  0.86113786  0.47934861  0.60681324     0.02800
H1434       H  0.82672350  0.48371334  0.61287914     0.06300
H1435       H  0.93733930  0.49967873  0.55234559     0.05300
H1436       H  0.91676828  0.52703455  0.54260004    -0.00500
H1437       H  0.90265726  0.49532236  0.55062693     0.01000
H1438       H  0.92105535  0.54163935  0.73557994     0.04700
H1439       H  0.91167786  0.50765993  0.73739107     0.06600
H1440       H  0.88771190  0.53245995  0.73023562     0.07500
C1441       C  0.85175809  0.55388419  0.92240841    -0.22200
C1442       C  0.86027885  0.52821851  0.91826703     0.09800
C1443       C  0.84744050  0.50807519  0.93785430     0.10200
C1444       C  0.82698194  0.51424536  0.96266543    -0.17100
C1445       C  0.81902372  0.54002601  0.96782718    -0.27500
C1446       C  0.83114386  0.55999235  0.94693274     0.18500
C1447       C  0.88397844  0.52318540  0.89575167     0.12500
C1448       C  0.85555932  0.48020153  0.93281012    -0.11900
H1449       H  0.82135420  0.50872851  0.49084508     0.12800
C1450       C  0.82277209  0.58778825  0.95148501    -0.22700
H1451       H  0.86172578  0.56921222  0.90715769     0.08400
C1452       C  0.88312177  0.51950365  0.85581629     0.04800
C1453       C  0.90634999  0.51500786  0.83600824    -0.19900
C1454       C  0.93028873  0.51432242  0.85530318    -0.12200
C1455       C  0.93116081  0.51873616  0.89525829     0.13500
C1456       C  0.90788798  0.52273181  0.91502741    -0.22600
C1457       C  0.85774541  0.52023642  0.83427471    -0.05700
H1458       H  0.90582122  0.51175462  0.80543631     0.15000
C1459       C  0.95620577  0.52042187  0.91775810    -0.15900
H1460       H  0.90840785  0.52601338  0.94567724     0.09300
H1461       H  0.80211517  0.58980276  0.94282158     0.07200
H1462       H  0.83452822  0.60105478  0.93350838     0.08400
H1463       H  0.82506303  0.59394470  0.98170998     0.07400
H1464       H  0.87610687  0.47779462  0.94189507     0.02300
H1465       H  0.85358659  0.47448952  0.90229191     0.02800
H1466       H  0.85117025  0.47648112  0.47390800     0.06300
H1467       H  0.86052391  0.51666937  0.80321529     0.05300
H1468       H  0.84858775  0.53958613  0.83787500    -0.00500
H1469       H  0.84442620  0.50510046  0.84541863     0.01000
H1470       H  0.95711570  0.53935007  0.93306075     0.04700
H1471       H  0.97378108  0.51913152  0.89971465     0.06600
H1472       H  0.95686418  0.50454891  0.93910001     0.07500
C1473       C  0.72253580  0.55976444  0.91566471    -0.22200
C1474       C  0.72155855  0.53428621  0.90163500     0.09800
C1475       C  0.74126032  0.51656623  0.91154604     0.10200
C1476       C  0.76013336  0.52398161  0.93847909    -0.17100
C1477       C  0.75979708  0.54878743  0.95526251    -0.27500
C1478       C  0.74163577  0.56736225  0.94211145     0.18500
C1479       C  0.69805398  0.52572460  0.88075253     0.12500
C1480       C  0.74155216  0.48948661  0.89512696    -0.11900
H1481       H  0.77384293  0.50964852  0.94859240     0.12800
C1482       C  0.74155779  0.59514027  0.95583903    -0.22700
H1483       H  0.70762629  0.57346818  0.90721377     0.08400
C1484       C  0.67626262  0.51630924  0.90077478     0.04800
C1485       C  0.65397439  0.50889929  0.88034222    -0.19900
C1486       C  0.65300289  0.51060445  0.84033603    -0.12200
C1487       C  0.67533383  0.51908215  0.82021257     0.13500
C1488       C  0.69744844  0.52698334  0.84083257    -0.22600
C1489       C  0.67646575  0.51436718  0.94376717    -0.05700
H1490       H  0.63694020  0.50241643  0.89578656     0.15000
C1491       C  0.67703707  0.51908535  0.77721481    -0.15900
H1492       H  0.71447849  0.53378863  0.82567694     0.09300
H1493       H  0.72310077  0.59925587  0.97102249     0.07200
H1494       H  0.74312028  0.60830022  0.93089127     0.08400
H1495       H  0.75804570  0.59969331  0.97523837     0.07400
H1496       H  0.74286709  0.49047073  0.86349387     0.02300
H1497       H  0.72348491  0.47904495  0.90307035     0.02800
H1498       H  0.75839748  0.47813373  0.90580598     0.06300
H1499       H  0.65781160  0.50662299  0.95485759     0.05300
H1500       H  0.67967958  0.53387145  0.95659507    -0.00500
H1501       H  0.69227689  0.50117281  0.95310105     0.01000
H1502       H  0.67875767  0.53934577  0.76679600     0.04700
H1503       H  0.66020321  0.50958008  0.76318136     0.06600
H1504       H  0.69451235  0.50805694  0.76819749     0.07500
C1505       C  0.21223231  0.49250147  0.95527554    -0.22200
C1506       C  0.19725747  0.47015081  0.94866674     0.09800
C1507       C  0.20516683  0.44616077  0.96406027     0.10200
C1508       C  0.22860893  0.44483807  0.98444547    -0.17100
C1509       C  0.24424531  0.46689399  0.98918089    -0.27500
C1510       C  0.23571934  0.49118778  0.97550529     0.18500
C1511       C  0.17448733  0.47206843  0.92306839     0.12500
C1512       C  0.18912147  0.42196410  0.95836346    -0.11900
H1513       H  0.23529307  0.42635502  0.99543202     0.12800
C1514       C  0.23492546  0.52909816  0.52038376    -0.22700
H1515       H  0.20591433  0.51092350  0.94360477     0.08400
C1516       C  0.15081129  0.48267795  0.93554043     0.04800
C1517       C  0.13052320  0.48594660  0.90909997    -0.19900
C1518       C  0.13326872  0.47851064  0.87049956    -0.12200
C1519       C  0.15687513  0.46685449  0.85861286     0.13500
C1520       C  0.17722548  0.46405736  0.88504088    -0.22600
C1521       C  0.14697766  0.49028257  0.97676817    -0.05700
H1522       H  0.11237543  0.49433971  0.91871445     0.15000
C1523       C  0.16131342  0.45813695  0.81804478    -0.15900
H1524       H  0.19559458  0.45584804  0.87595015     0.09300
H1525       H  0.22182799  0.52574874  0.54487134     0.07200
H1526       H  0.22985013  0.54792007  0.50694256     0.08400
H1527       H  0.25511640  0.53089595  0.53120026     0.07400
H1528       H  0.18748364  0.41735560  0.92742414     0.02300
H1529       H  0.16938998  0.42499355  0.97028754     0.02800
H1530       H  0.19794811  0.40497136  0.97288209     0.06300
H1531       H  0.12711822  0.49790213  0.98193616     0.05300
H1532       H  0.16116282  0.50558806  0.98505444    -0.00500
H1533       H  0.14990082  0.47305705  0.99525630     0.01000
H1534       H  0.15828921  0.47473584  0.79839757     0.04700
H1535       H  0.14780587  0.44202655  0.81068510     0.06600
H1536       H  0.18138444  0.45082723  0.81366740     0.07500
C1537       C  0.18509225  0.46240007  0.66156893    -0.22200
C1538       C  0.19051710  0.48077114  0.63334067     0.09800
C1539       C  0.17172190  0.49965694  0.62430095     0.10200
C1540       C  0.14878885  0.50098123  0.64572633    -0.17100
C1541       C  0.14342101  0.48328138  0.67540288    -0.27500
C1542       C  0.16167277  0.46303773  0.68228798     0.18500
C1543       C  0.21576489  0.47970828  0.61297407     0.12500
C1544       C  0.17552909  0.51810868  0.59144443    -0.11900
H1545       H  0.13488640  0.51602474  0.63880108     0.12800
C1546       C  0.15690369  0.44179442  0.71086459    -0.22700
H1547       H  0.19935373  0.44745011  0.66738789     0.08400
C1548       C  0.23607817  0.49728063  0.62161615     0.04800
C1549       C  0.25822698  0.49782023  0.59827901    -0.19900
C1550       C  0.26083476  0.48074781  0.56714375    -0.12200
C1551       C  0.24182355  0.46113875  0.56152937     0.13500
C1552       C  0.21923323  0.46125079  0.58391114    -0.22600
C1553       C  0.23440195  0.51538979  0.65547020    -0.05700
H1554       H  0.27297231  0.51243692  0.60322395     0.15000
C1555       C  0.24498077  0.43966309  0.53262379    -0.15900
H1556       H  0.20409389  0.44702951  0.57837012     0.09300
H1557       H  0.17318338  0.42768114  0.71191349     0.07200
H1558       H  0.13903722  0.43085158  0.70298611     0.08400
H1559       H  0.15489614  0.45025706  0.73978997     0.07400
H1560       H  0.17832865  0.50690197  0.56458059     0.02300
H1561       H  0.19273039  0.53060248  0.59669552     0.02800
H1562       H  0.15848903  0.53102559  0.58740373     0.06300
H1563       H  0.25208284  0.52767287  0.65827909     0.05300
H1564       H  0.23237597  0.50386434  0.68203972    -0.00500
H1565       H  0.21740237  0.52843203  0.65270377     0.01000
H1566       H  0.24380245  0.42062591  0.54728913     0.04700
H1567       H  0.26400855  0.44045909  0.51792696     0.06600
H1568       H  0.24167554  0.40256946  0.07064307     0.07500
C1569       C  0.39029397  0.47339074  0.69027748    -0.22200
C1570       C  0.38758806  0.47277427  0.65046976     0.09800
C1571       C  0.40984218  0.47084627  0.62712270     0.10200
C1572       C  0.43448167  0.47017206  0.64419251    -0.17100
C1573       C  0.43733580  0.47129914  0.68399524    -0.27500
C1574       C  0.41500851  0.47260796  0.70742840     0.18500
C1575       C  0.36174936  0.47684070  0.63305216     0.12500
C1576       C  0.40760904  0.47029793  0.58412830    -0.11900
H1577       H  0.45167101  0.46933681  0.62639516     0.12800
C1578       C  0.41718395  0.47442208  0.75029559    -0.22700
H1579       H  0.37307476  0.47518756  0.70783247     0.08400
C1580       C  0.34635699  0.45586352  0.62011332     0.04800
C1581       C  0.32573454  0.46068286  0.59467376    -0.19900
C1582       C  0.32082184  0.48593060  0.58167934    -0.12200
C1583       C  0.33469712  0.50709787  0.59762068     0.13500
C1584       C  0.35480712  0.50228292  0.62367048    -0.22600
C1585       C  0.35270266  0.42843394  0.63147471    -0.05700
H1586       H  0.31502962  0.44454605  0.58226134     0.15000
C1587       C  0.32941045  0.53465884  0.58547112    -0.15900
H1588       H  0.36663407  0.51825792  0.63418851     0.09300
H1589       H  0.39787719  0.47686475  0.76392165     0.07200
H1590       H  0.42947502  0.49131260  0.75852321     0.08400
H1591       H  0.42588219  0.45633344  0.76155766     0.07400
H1592       H  0.39821133  0.48837886  0.57390527     0.02300
H1593       H  0.39576029  0.45334203  0.57492316     0.02800
H1594       H  0.42693669  0.46875656  0.57028338     0.06300
H1595       H  0.33877221  0.41429357  0.61877987     0.05300
H1596       H  0.35184300  0.42667979  0.66306748    -0.00500
H1597       H  0.37253200  0.42326246  0.62169365     0.01000
H1598       H  0.34168737  0.54876597  0.60153029     0.04700
H1599       H  0.30878235  0.53961328  0.59082458     0.06600
H1600       H  0.33361938  0.53709018  0.55463393     0.07500
C1601       C  0.48343142  0.16976145  0.61184970    -0.22200
C1602       C  0.50939944  0.16537253  0.62197492     0.09800
C1603       C  0.52882524  0.18302254  0.61050482     0.10200
C1604       C  0.52204062  0.20379206  0.58673973    -0.17100
C1605       C  0.49638066  0.20690262  0.57388930    -0.27500
C1606       C  0.47663404  0.19046158  0.58802063     0.18500
C1607       C  0.51614457  0.14093784  0.64146285     0.12500
C1608       C  0.55678754  0.17933989  0.62219266    -0.11900
H1609       H  0.53712660  0.21646729  0.57588977     0.12800
C1610       C  0.44836450  0.19400306  0.57800577    -0.22700
H1611       H  0.46853220  0.15637508  0.62138142     0.08400
C1612       C  0.51292562  0.13787278  0.68108608     0.04800
C1613       C  0.52012528  0.11436411  0.69802062    -0.19900
C1614       C  0.53068911  0.09390983  0.67627512    -0.12200
C1615       C  0.53321718  0.09685252  0.63621632     0.13500
C1616       C  0.52586344  0.12039997  0.61938124    -0.22600
C1617       C  0.50232544  0.15952810  0.70549693    -0.05700
H1618       H  0.51792427  0.11214505  0.72863811     0.15000
C1619       C  0.54286313  0.07521579  0.61083671    -0.15900
H1620       H  0.52780689  0.12294224  0.58877126     0.09300
H1621       H  0.43690508  0.19605843  0.60467672     0.07200
H1622       H  0.44123165  0.17676360  0.56190168     0.08400
H1623       H  0.44481596  0.21158678  0.56059695     0.07400
H1624       H  0.56414261  0.16058552  0.61088645     0.02300
H1625       H  0.55833906  0.17936170  0.65385951     0.02800
H1626       H  0.56941721  0.19508581  0.61108089     0.06300
H1627       H  0.50137849  0.15398186  0.73611058     0.05300
H1628       H  0.48238732  0.16455821  0.69586647    -0.00500
H1629       H  0.51501360  0.17690225  0.70307786     0.01000
H1630       H  0.54181639  0.08050783  0.58011824     0.04700
H1631       H  0.53079607  0.05756112  0.61499563     0.06600
H1632       H  0.56348352  0.07086728  0.61753486     0.07500
C1633       C  0.53192825  0.30580409  0.93418844    -0.22200
C1634       C  0.51486221  0.32660682  0.93930370     0.09800
C1635       C  0.49402410  0.32436712  0.96516603     0.10200
C1636       C  0.49063128  0.30105410  0.98527966    -0.17100
C1637       C  0.50726001  0.27987372  0.97921921    -0.27500
C1638       C  0.52843965  0.28243354  0.95375100     0.18500
C1639       C  0.51837446  0.34975195  0.91505426     0.12500
C1640       C  0.47496943  0.34622371  0.97046684    -0.11900
H1641       H  0.47431767  0.29895236  0.00453423     0.12800
C1642       C  0.54036488  0.26051634  0.44320898    -0.22700
H1643       H  0.54789017  0.30769735  0.91422449     0.08400
C1644       C  0.53454769  0.37052631  0.92626269     0.04800
C1645       C  0.53846991  0.39122471  0.90098028    -0.19900
C1646       C  0.52674243  0.39157640  0.86449822    -0.12200
C1647       C  0.51071001  0.37031037  0.85327542     0.13500
C1648       C  0.50671260  0.34981064  0.87887942    -0.22600
C1649       C  0.54784790  0.37067591  0.96471390    -0.05700
H1650       H  0.55075764  0.40727245  0.90992661     0.15000
C1651       C  0.49839860  0.36831164  0.81414280    -0.15900
H1652       H  0.49468455  0.33341991  0.87047949     0.09300
H1653       H  0.56100915  0.26585811  0.44838452     0.07200
H1654       H  0.54679640  0.25502855  0.91601386     0.08400
H1655       H  0.53653336  0.24233784  0.45899551     0.07400
H1656       H  0.46532804  0.35060991  0.94278789     0.02300
H1657       H  0.48527444  0.36384658  0.98088551     0.02800
H1658       H  0.45968255  0.34120655  0.99152337     0.06300
H1659       H  0.55992557  0.38836587  0.96894765     0.05300
H1660       H  0.56070431  0.35347465  0.96719988    -0.00500
H1661       H  0.53312075  0.37006211  0.98777895     0.01000
H1662       H  0.48831406  0.34942803  0.80980382     0.04700
H1663       H  0.51352226  0.37001819  0.79172519     0.06600
H1664       H  0.48359743  0.38370256  0.81056976     0.07500
C1665       C  0.53270777  0.30049326  0.59627469    -0.22200
C1666       C  0.51304348  0.30623400  0.62263170     0.09800
C1667       C  0.49041521  0.29069025  0.62341585     0.10200
C1668       C  0.48725082  0.27088916  0.59607569    -0.17100
C1669       C  0.50630802  0.26609658  0.56838890    -0.27500
C1670       C  0.52985736  0.28022235  0.56970635     0.18500
C1671       C  0.51563660  0.33012628  0.64621000     0.12500
C1672       C  0.46961404  0.29505248  0.65289055    -0.11900
H1673       H  0.46940431  0.25968722  0.59526402     0.12800
C1674       C  0.55234200  0.27416607  0.54386727    -0.22700
H1675       H  0.55023206  0.31222516  0.59598199     0.08400
C1676       C  0.53418733  0.33239547  0.67590652     0.04800
C1677       C  0.53810581  0.35664658  0.69366341    -0.19900
C1678       C  0.52356216  0.37845806  0.68281705    -0.12200
C1679       C  0.50431118  0.37591153  0.65405437     0.13500
C1680       C  0.50070249  0.35178808  0.63604535    -0.22600
C1681       C  0.54959000  0.30923501  0.68906737    -0.05700
H1682       H  0.55264218  0.35865790  0.71601725     0.15000
C1683       C  0.48793300  0.39835126  0.64054086    -0.15900
H1684       H  0.48662266  0.35004378  0.61300230     0.09300
H1685       H  0.56988107  0.27012967  0.56144528     0.07200
H1686       H  0.55636109  0.29105965  0.52517202     0.08400
H1687       H  0.54868217  0.25680014  0.52583402     0.07400
H1688       H  0.46130509  0.31479678  0.64991326     0.02300
H1689       H  0.47809834  0.29294758  0.68194728     0.02800
H1690       H  0.45348940  0.28080444  0.64982237     0.06300
H1691       H  0.56292363  0.31432494  0.71302133     0.05300
H1692       H  0.56149674  0.30148606  0.66526397    -0.00500
H1693       H  0.53610564  0.29385690  0.69906519     0.01000
H1694       H  0.49121202  0.40145601  0.60953613     0.04700
H1695       H  0.49237504  0.41682540  0.65556378     0.06600
H1696       H  0.46707104  0.39380017  0.64509353     0.07500
C1697       C  0.58649335  0.85889549  0.90116694    -0.22200
C1698       C  0.58605233  0.83676684  0.87774661     0.09800
C1699       C  0.58311919  0.83940134  0.83788631     0.10200
C1700       C  0.58092005  0.86437825  0.82219580    -0.17100
C1701       C  0.58050666  0.88651308  0.84580584    -0.27500
C1702       C  0.58335330  0.88374654  0.88578165     0.18500
C1703       C  0.58675375  0.81119691  0.89667702     0.12500
C1704       C  0.58170259  0.81589308  0.81224300    -0.11900
H1705       H  0.57858962  0.86660616  0.79157136     0.12800
C1706       C  0.58321561  0.90689190  0.91231745    -0.22700
H1707       H  0.58857624  0.85657869  0.93182343     0.08400
C1708       C  0.61043797  0.79967601  0.90775490     0.04800
C1709       C  0.61007289  0.77877065  0.93332860    -0.19900
C1710       C  0.58658640  0.76942650  0.94814715    -0.12200
C1711       C  0.56280707  0.77994272  0.93511298     0.13500
C1712       C  0.56321030  0.80062048  0.90924689    -0.22600
C1713       C  0.63605501  0.81034552  0.89423743    -0.05700
H1714       H  0.62825392  0.77098909  0.94395421     0.15000
C1715       C  0.53992817  0.76847818  0.45270358    -0.15900
H1716       H  0.54507287  0.80966882  0.90077557     0.09300
H1717       H  0.58710223  0.90122553  0.94239873     0.07200
H1718       H  0.56389919  0.91639066  0.91150584     0.08400
H1719       H  0.59842808  0.92096842  0.90361440     0.07400
H1720       H  0.56496306  0.80355365  0.82061704     0.02300
H1721       H  0.59987414  0.80445817  0.81485200     0.02800
H1722       H  0.57912954  0.82137406  0.78179091     0.06300
H1723       H  0.65270612  0.79897778  0.90552622     0.05300
H1724       H  0.63834530  0.83077014  0.90397274    -0.00500
H1725       H  0.63679079  0.80965528  0.86254786     0.01000
H1726       H  0.52939967  0.78420044  0.46791026     0.04700
H1727       H  0.54344925  0.75263825  0.47333304     0.06600
H1728       H  0.52734315  0.76075248  0.42940694     0.07500
C1729       C  0.56237106  0.67058355  0.58248743    -0.22200
C1730       C  0.58265918  0.65256008  0.58468703     0.09800
C1731       C  0.60564341  0.65680749  0.56366801     0.10200
C1732       C  0.60826010  0.67970634  0.54220998    -0.17100
C1733       C  0.58821868  0.69811101  0.54105552    -0.27500
C1734       C  0.56470207  0.69312660  0.56047465     0.18500
C1735       C  0.57888859  0.62909261  0.60846877     0.12500
C1736       C  0.62742647  0.63735153  0.56438396    -0.11900
H1737       H  0.62618543  0.68356935  0.52706904     0.12800
C1738       C  0.54157938  0.71100048  0.55818198    -0.22700
H1739       H  0.54450964  0.66694769  0.59793992     0.08400
C1740       C  0.58369933  0.62939146  0.64819603     0.04800
C1741       C  0.57796796  0.60722329  0.66987238    -0.19900
C1742       C  0.56753983  0.58467117  0.65278596    -0.12200
C1743       C  0.56371017  0.58418170  0.61260242     0.13500
C1744       C  0.56923361  0.60649645  0.59108784    -0.22600
C1745       C  0.59489500  0.65308273  0.66765003    -0.05700
H1746       H  0.58133795  0.60764425  0.70048527     0.15000
C1747       C  0.55477243  0.56003870  0.59188268    -0.15900
H1748       H  0.56591485  0.60640678  0.56046029     0.09300
H1749       H  0.53702326  0.71862140  0.58711428     0.07200
H1750       H  0.52451490  0.70001340  0.54713954     0.08400
H1751       H  0.54468041  0.72769345  0.53885046     0.07400
H1752       H  0.62036174  0.61838592  0.55321831     0.02300
H1753       H  0.63451087  0.63482314  0.59415142     0.02800
H1754       H  0.64404663  0.64366437  0.54649546     0.06300
H1755       H  0.59777442  0.64995349  0.69878466     0.05300
H1756       H  0.58156393  0.66980479  0.66391714    -0.00500
H1757       H  0.61403945  0.65788581  0.65494138     0.01000
H1758       H  0.53465850  0.55502424  0.60044270     0.04700
H1759       H  0.56805339  0.54369302  0.59857396     0.06600
H1760       H  0.55472071  0.56271380  0.56038690     0.07500
C1761       C  0.60125670  0.68081642  0.90668425    -0.22200
C1762       C  0.57697739  0.66917269  0.90035663     0.09800
C1763       C  0.55496854  0.67841317  0.92011739     0.10200
C1764       C  0.55790703  0.69861529  0.94681704    -0.17100
C1765       C  0.58237070  0.70949818  0.95437771    -0.27500
C1766       C  0.60427034  0.70073007  0.93384646     0.18500
C1767       C  0.57565414  0.64479739  0.87795692     0.12500
C1768       C  0.52858861  0.66633533  0.91386513    -0.11900
H1769       H  0.54130701  0.70531946  0.96302524     0.12800
C1770       C  0.63122420  0.71092674  0.94156917    -0.22700
H1771       H  0.61817704  0.67334719  0.89191995     0.08400
C1772       C  0.57242880  0.64437429  0.83788793     0.04800
C1773       C  0.56978969  0.62034719  0.81897724    -0.19900
C1774       C  0.56956275  0.59702012  0.83960653    -0.12200
C1775       C  0.57338074  0.59756128  0.87968273     0.13500
C1776       C  0.57657343  0.62145502  0.89821545    -0.22600
C1777       C  0.57086893  0.66919678  0.81547715    -0.05700
H1778       H  0.56674859  0.61980893  0.78829173     0.15000
C1779       C  0.57428298  0.57342004  0.90392986    -0.15900
H1780       H  0.57922187  0.62195015  0.92899881     0.09300
H1781       H  0.63900507  0.72003074  0.91527047     0.07200
H1782       H  0.64410224  0.69463086  0.94998466     0.08400
H1783       H  0.63181695  0.72549207  0.96494042     0.07400
H1784       H  0.52901304  0.64555236  0.92210258     0.02300
H1785       H  0.52303357  0.66787166  0.88325870     0.02800
H1786       H  0.51341502  0.67613040  0.93117305     0.06300
H1787       H  0.56812537  0.66539903  0.78442953     0.05300
H1788       H  0.58907951  0.68051041  0.81938540    -0.00500
H1789       H  0.55419130  0.68095132  0.82567662     0.01000
H1790       H  0.59297042  0.57285080  0.91989943     0.04700
H1791       H  0.57289150  0.55520991  0.88711787     0.06600
H1792       H  0.55805482  0.57381611  0.92475748     0.07500
C1793       C  0.25165131  0.99829366  0.62464244    -0.22200
C1794       C  0.24025568  0.02070890  0.63994269     0.09800
C1795       C  0.25093811  0.04524039  0.63147244     0.10200
C1796       C  0.27078129  0.04702963  0.60418325    -0.17100
C1797       C  0.28011593  0.02478971  0.58555050    -0.27500
C1798       C  0.27143287  0.00002023  0.59732359     0.18500
C1799       C  0.21453558  0.01833862  0.65851413     0.12500
C1800       C  0.24028283  0.06954735  0.64952124    -0.11900
H1801       H  0.27759971  0.06596677  0.59520269     0.12800
C1802       C  0.28114956  0.97516411  0.57970820    -0.22700
H1803       H  0.24359914  0.97943995  0.63166300     0.08400
C1804       C  0.19164710  0.01725469  0.63612301     0.04800
C1805       C  0.16752256  0.01427367  0.65409861    -0.19900
C1806       C  0.16566101  0.01240445  0.69398337    -0.12200
C1807       C  0.18868716  0.01353044  0.71645688     0.13500
C1808       C  0.21283782  0.01672267  0.69835410    -0.22600
C1809       C  0.19271375  0.01929501  0.59316611    -0.05700
H1810       H  0.14994394  0.01347127  0.63691668     0.15000
C1811       C  0.18881121  0.01023115  0.75923350    -0.15900
H1812       H  0.23050012  0.01741374  0.71535337     0.09300
H1813       H  0.26466083  0.96439199  0.56652259     0.07200
H1814       H  0.29013451  0.96292998  0.60220994     0.08400
H1815       H  0.29579645  0.97850405  0.55730137     0.07400
H1816       H  0.24233587  0.06835265  0.68107422     0.02300
H1817       H  0.21941746  0.07174191  0.64203207     0.02800
H1818       H  0.25078903  0.08714276  0.63970565     0.06300
H1819       H  0.17302965  0.01840782  0.58006597     0.05300
H1820       H  0.20434423  0.00306068  0.58124184    -0.00500
H1821       H  0.20179823  0.03802351  0.58497398     0.01000
H1822       H  0.20180150  0.99386872  0.76698812     0.04700
H1823       H  0.16942746  0.00571104  0.77102076     0.06600
H1824       H  0.19621495  0.02824880  0.77305743     0.07500
C1825       C  0.37695342  0.00251313  0.93431440    -0.22200
C1826       C  0.39575499  0.02158479  0.94149251     0.09800
C1827       C  0.39052654  0.04180415  0.96767664     0.10200
C1828       C  0.36666720  0.04195298  0.98710476    -0.17100
C1829       C  0.34771205  0.02292861  0.97961409    -0.27500
C1830       C  0.35286110  0.00305364  0.95262209     0.18500
C1831       C  0.42003713  0.02042123  0.91918592     0.12500
C1832       C  0.40964166  0.06360959  0.97395319    -0.11900
H1833       H  0.36242017  0.05740820  0.00725788     0.12800
C1834       C  0.32880784  0.98552558  0.44336207    -0.22700
H1835       H  0.38101619  0.98723060  0.91376030     0.08400
C1836       C  0.44228504  0.00758547  0.93306026     0.04800
C1837       C  0.46389897  0.00469241  0.90908086    -0.19900
C1838       C  0.46349068  0.01361406  0.87108578    -0.12200
C1839       C  0.44072848  0.02604199  0.85709597     0.13500
C1840       C  0.41951649  0.02956616  0.88161294    -0.22600
C1841       C  0.44281444  0.99607327  0.97258977    -0.05700
H1842       H  0.48105121  0.99495947  0.91992454     0.15000
C1843       C  0.43778369  0.03432911  0.81595776    -0.15900
H1844       H  0.40195091  0.03871821  0.87105166     0.09300
H1845       H  0.33735960  0.96590417  0.44700758     0.07200
H1846       H  0.31540040  0.98298197  0.95905953     0.08400
H1847       H  0.32237213  0.98771069  0.41321967     0.07400
H1848       H  0.41327294  0.07367183  0.94647315     0.02300
H1849       H  0.42827565  0.05588400  0.98509103     0.02800
H1850       H  0.40223723  0.07813473  0.99477521     0.06300
H1851       H  0.46160089  0.98632587  0.97872935     0.05300
H1852       H  0.42706016  0.98143495  0.97529108    -0.00500
H1853       H  0.43994342  0.01150059  0.99436822     0.01000
H1854       H  0.41791273  0.04162638  0.80974979     0.04700
H1855       H  0.44137911  0.01754749  0.79664115     0.06600
H1856       H  0.45153813  0.05031193  0.80947237     0.07500
C1857       C  0.42642116  0.03419450  0.63750342    -0.22200
C1858       C  0.40502463  0.01813859  0.64510038     0.09800
C1859       C  0.40669316  0.99954564  0.67456492     0.10200
C1860       C  0.43002774  0.99696811  0.69507903    -0.17100
C1861       C  0.45158290  0.01263601  0.68692347    -0.27500
C1862       C  0.44975235  0.03168468  0.65802214     0.18500
C1863       C  0.38184609  0.01981310  0.61994181     0.12500
C1864       C  0.38389165  0.98246103  0.68439514    -0.11900
H1865       H  0.43162619  0.98239430  0.71723516     0.12800
C1866       C  0.47225721  0.04885467  0.64690163    -0.22700
H1867       H  0.42517448  0.04822669  0.61454860     0.08400
C1868       C  0.36463792  0.04109359  0.62135564     0.04800
C1869       C  0.34356708  0.04195601  0.59573325    -0.19900
C1870       C  0.33927942  0.02199387  0.56897342    -0.12200
C1871       C  0.35607139  0.00028576  0.56855569     0.13500
C1872       C  0.37735593  0.99971098  0.59360317    -0.22600
C1873       C  0.36841159  0.06272854  0.64996402    -0.05700
H1874       H  0.33063908  0.05853129  0.59589874     0.15000
C1875       C  0.35188638  0.97714049  0.54286241    -0.15900
H1876       H  0.39056932  0.98334019  0.59268941     0.09300
H1877       H  0.46689759  0.06953149  0.65122425     0.07200
H1878       H  0.47690304  0.04570537  0.61625774     0.08400
H1879       H  0.49013816  0.04501125  0.66362987     0.07400
H1880       H  0.37862931  0.96995556  0.65964230     0.02300
H1881       H  0.36697386  0.99471529  0.69217669     0.02800
H1882       H  0.38832375  0.96956971  0.70893264     0.06300
H1883       H  0.35267725  0.07740239  0.64799540     0.05300
H1884       H  0.38718240  0.07272673  0.64478738    -0.00500
H1885       H  0.36839282  0.05467851  0.67935760     0.01000
H1886       H  0.36894954  0.97464885  0.52387095     0.04700
H1887       H  0.33432148  0.97887530  0.52482635     0.06600
H1888       H  0.34960405  0.95944357  0.56056111     0.07500
C1889       C  0.90212295  0.96241015  0.84420198    -0.22200
C1890       C  0.90173682  0.96164302  0.88418784     0.09800
C1891       C  0.92439316  0.96807505  0.90513955     0.10200
C1892       C  0.94709939  0.97478085  0.88552233    -0.17100
C1893       C  0.94781550  0.97496759  0.84544829    -0.27500
C1894       C  0.92488690  0.96905006  0.82445142     0.18500
C1895       C  0.87800224  0.95285544  0.90407975     0.12500
C1896       C  0.92467779  0.96769848  0.94824807    -0.11900
H1897       H  0.96466196  0.97915210  0.90157269     0.12800
C1898       C  0.92342985  0.97001787  0.78144678    -0.22700
H1899       H  0.88461818  0.95756882  0.82830981     0.08400
C1900       C  0.85708680  0.96978933  0.91146740     0.04800
C1901       C  0.83785796  0.96221858  0.93748795    -0.19900
C1902       C  0.83913771  0.93810679  0.95597803    -0.12200
C1903       C  0.85873131  0.92023320  0.94553634     0.13500
C1904       C  0.87792919  0.92787832  0.91969296    -0.22600
C1905       C  0.85578236  0.99627023  0.89352408    -0.05700
H1906       H  0.82299167  0.97601689  0.94557627     0.15000
C1907       C  0.86040120  0.89324187  0.96180998    -0.15900
H1908       H  0.89375707  0.91472251  0.91318481     0.09300
H1909       H  0.90752732  0.98330000  0.77270271     0.07200
H1910       H  0.91920776  0.95030356  0.76999317     0.08400
H1911       H  0.94146077  0.97734552  0.76813095     0.07400
H1912       H  0.92052280  0.94781115  0.95868022     0.02300
H1913       H  0.90974185  0.98125049  0.95942314     0.02800
H1914       H  0.94385620  0.97371087  0.96003482     0.06300
H1915       H  0.83830834  0.00717244  0.90292591     0.05300
H1916       H  0.85488584  0.99424575  0.86194065    -0.00500
H1917       H  0.87326650  0.00774689  0.90158314     0.01000
H1918       H  0.86044113  0.87885031  0.93807704     0.04700
H1919       H  0.84379951  0.88841542  0.98057329     0.06600
H1920       H  0.87147895  0.88546443  0.46930479     0.07500
C1921       C  0.70189611  0.96270635  0.64941705    -0.22200
C1922       C  0.69787771  0.96409473  0.60989055     0.09800
C1923       C  0.67324810  0.97074202  0.59527171     0.10200
C1924       C  0.65296278  0.97590369  0.62084876    -0.17100
C1925       C  0.65678758  0.97412438  0.66056760    -0.27500
C1926       C  0.68163703  0.96759034  0.67505189     0.18500
C1927       C  0.71992138  0.95804704  0.58466018     0.12500
C1928       C  0.66846065  0.97228038  0.55282784    -0.11900
H1929       H  0.63390830  0.98091048  0.60980613     0.12800
C1930       C  0.68719974  0.96659234  0.71734851    -0.22700
H1931       H  0.72102737  0.95769449  0.66017566     0.08400
C1932       C  0.73884363  0.97693587  0.57603190     0.04800
C1933       C  0.76104883  0.96951417  0.55577096    -0.19900
C1934       C  0.76470615  0.94366677  0.54441419    -0.12200
C1935       C  0.74540336  0.92489972  0.55206902     0.13500
C1936       C  0.72310958  0.93239034  0.57209917    -0.22600
C1937       C  0.73587984  0.00468636  0.58904748    -0.05700
H1938       H  0.77604425  0.98373703  0.54982067     0.15000
C1939       C  0.74793638  0.89686107  0.54025747    -0.15900
H1940       H  0.70847717  0.91798376  0.57898775     0.09300
H1941       H  0.70807397  0.96282770  0.72335005     0.07200
H1942       H  0.67584844  0.95075936  0.73077326     0.08400
H1943       H  0.68203711  0.98546307  0.73074803     0.07400
H1944       H  0.67230567  0.95311290  0.53936775     0.02300
H1945       H  0.68154696  0.98701745  0.54005853     0.02800
H1946       H  0.64808105  0.97781147  0.54622150     0.06300
H1947       H  0.75238434  0.01696530  0.57952899     0.05300
H1948       H  0.73507933  0.00554228  0.62073525    -0.00500
H1949       H  0.71768832  0.01292867  0.57705872     0.01000
H1950       H  0.74744126  0.88435719  0.56602015     0.04700
H1951       H  0.76208251  0.90181386  0.01123289     0.06600
H1952       H  0.72918598  0.91026130  0.99878908     0.07500
C1953       C  0.75208683  0.93436911  0.91010146    -0.22200
C1954       C  0.74006523  0.95875098  0.91137436     0.09800
C1955       C  0.74887539  0.97755726  0.93796603     0.10200
C1956       C  0.76848650  0.97100287  0.96413363    -0.17100
C1957       C  0.77965694  0.94620656  0.96411859    -0.27500
C1958       C  0.77181546  0.92783369  0.93614105     0.18500
C1959       C  0.71614084  0.96296674  0.88844399     0.12500
C1960       C  0.73752047  0.00449037  0.93881919    -0.11900
H1961       H  0.77490396  0.98508004  0.98528104     0.12800
C1962       C  0.78270295  0.90074515  0.93426852    -0.22700
H1963       H  0.74514813  0.91988873  0.88988295     0.08400
C1964       C  0.71651799  0.96675459  0.84849180     0.04800
C1965       C  0.69295407  0.97110078  0.82895294    -0.19900
C1966       C  0.66917713  0.97155094  0.84853134    -0.12200
C1967       C  0.66884866  0.96675229  0.88831005     0.13500
C1968       C  0.69232327  0.96265416  0.90767878    -0.22600
C1969       C  0.74170141  0.96666703  0.82672414    -0.05700
H1970       H  0.69312402  0.97465762  0.79849790     0.15000
C1971       C  0.64413529  0.96514618  0.91122620    -0.15900
H1972       H  0.69206184  0.95907198  0.93821613     0.09300
H1973       H  0.79246368  0.89777100  0.90634922     0.07200
H1974       H  0.76664466  0.88643475  0.93693667     0.08400
H1975       H  0.79688911  0.89666640  0.95729149     0.07400
H1976       H  0.71649908  0.00362727  0.94560329     0.02300
H1977       H  0.74015010  0.01378000  0.91051031     0.02800
H1978       H  0.74712399  0.01692243  0.96075470     0.06300
H1979       H  0.73854748  0.97047269  0.79581695     0.05300
H1980       H  0.75124892  0.94746085  0.82947008    -0.00500
H1981       H  0.75484550  0.98193733  0.83831208     0.01000
H1982       H  0.64296632  0.94587263  0.92523217     0.04700
H1983       H  0.62633742  0.96742634  0.89371755     0.06600
H1984       H  0.64424472  0.98047450  0.93364733     0.07500
C1985       C  0.09200155  0.13545304  0.88824049    -0.22200
C1986       C  0.08037903  0.13540634  0.92437457     0.09800
C1987       C  0.06605121  0.11355041  0.93616246     0.10200
C1988       C  0.06468714  0.09166590  0.91217480    -0.17100
C1989       C  0.07602911  0.09158952  0.87558118    -0.27500
C1990       C  0.08961283  0.11410342  0.86330279     0.18500
C1991       C  0.08109359  0.15959140  0.94742007     0.12500
C1992       C  0.05091476  0.11389363  0.97297491    -0.11900
H1993       H  0.05386992  0.07481132  0.92162184     0.12800
C1994       C  0.10022842  0.11666309  0.82333328    -0.22700
H1995       H  0.10220123  0.15275371  0.87900739     0.08400
C1996       C  0.09882276  0.16327885  0.97788636     0.04800
C1997       C  0.09889421  0.18700437  0.99790244    -0.19900
C1998       C  0.08224436  0.20731165  0.98725447    -0.12200
C1999       C  0.06460004  0.20355545  0.95651595     0.13500
C2000       C  0.06408093  0.17961123  0.93733983    -0.22600
C2001       C  0.11836905  0.14269537  0.98816553    -0.05700
H2002       H  0.11366968  0.18761005  0.52253728     0.15000
C2003       C  0.04609026  0.22453592  0.94381412    -0.15900
H2004       H  0.05064086  0.17657999  0.91377251     0.09300
H2005       H  0.10829021  0.13634639  0.81809261     0.07200
H2006       H  0.08446982  0.11327169  0.80206635     0.08400
H2007       H  0.11619163  0.10256311  0.81876054     0.07400
H2008       H  0.03655424  0.12995527  0.97231647     0.02300
H2009       H  0.06412003  0.11681653  0.99772173     0.02800
H2010       H  0.04014340  0.09544520  0.97737086     0.06300
H2011       H  0.12836587  0.14458665  0.52033415     0.05300
H2012       H  0.13096623  0.13862649  0.96316426    -0.00500
H2013       H  0.10838360  0.12453510  0.99658591     0.01000
H2014       H  0.05695818  0.24101367  0.93135146     0.04700
H2015       H  0.03441413  0.23151120  0.96834767     0.06600
H2016       H  0.03238226  0.21738062  0.92150892     0.07500
C2017       C  0.06031367  0.17952720  0.59989065    -0.22200
C2018       C  0.08202447  0.17366233  0.62260100     0.09800
C2019       C  0.10391001  0.19020967  0.62194093     0.10200
C2020       C  0.10394631  0.21179674  0.59750851    -0.17100
C2021       C  0.08275428  0.21692570  0.57335717    -0.27500
C2022       C  0.06032011  0.20112103  0.57557411     0.18500
C2023       C  0.08163468  0.14965808  0.64593193     0.12500
C2024       C  0.12740613  0.18468453  0.64633099    -0.11900
H2025       H  0.12110578  0.22394051  0.59559540     0.12800
C2026       C  0.03618669  0.20663833  0.55263467    -0.22700
H2027       H  0.04336153  0.16700555  0.60085239     0.08400
C2028       C  0.06896743  0.14874334  0.68160294     0.04800
C2029       C  0.06769644  0.12511677  0.70144815    -0.19900
C2030       C  0.07897387  0.10248743  0.68652520    -0.12200
C2031       C  0.09232377  0.10356492  0.65129156     0.13500
C2032       C  0.09344888  0.12717652  0.63140226    -0.22600
C2033       C  0.05667679  0.17265695  0.69852212    -0.05700
H2034       H  0.05729159  0.12412199  0.72829529     0.15000
C2035       C  0.10513938  0.08014181  0.63359762    -0.15900
H2036       H  0.10323617  0.12797229  0.60402778     0.09300
H2037       H  0.01928359  0.20825135  0.57212097     0.07200
H2038       H  0.03341188  0.18727702  0.03078691     0.08400
H2039       H  0.03574825  0.22220759  0.03474374     0.07400
H2040       H  0.13574602  0.16556709  0.63832247     0.02300
H2041       H  0.12175654  0.18435152  0.67692056     0.02800
H2042       H  0.14273433  0.19967745  0.64269179     0.06300
H2043       H  0.04780485  0.16864565  0.72678582     0.05300
H2044       H  0.04119989  0.17991806  0.67915481    -0.00500
H2045       H  0.07165391  0.18800181  0.70244590     0.01000
H2046       H  0.09615451  0.07599557  0.60529809     0.04700
H2047       H  0.10337521  0.06247728  0.65140794     0.06600
H2048       H  0.12616299  0.08415491  0.62954754     0.07500
C2049       C  0.10236059  0.31469541  0.61891054    -0.22200
C2050       C  0.07689931  0.31798388  0.63200895     0.09800
C2051       C  0.05777722  0.29921019  0.62313194     0.10200
C2052       C  0.06405008  0.27861913  0.59847628    -0.17100
C2053       C  0.08881962  0.27691352  0.58212571    -0.21900
C2054       C  0.10858844  0.29429948  0.59396706     0.18500
C2055       C  0.07005066  0.34295617  0.65022886     0.12500
C2056       C  0.03053538  0.30162345  0.63827549    -0.11900
H2057       H  0.04899329  0.26515809  0.58939294     0.12800
C2058       C  0.13609118  0.29168023  0.57977064    -0.22700
H2059       H  0.11700767  0.32901604  0.62644454     0.08400
C2060       C  0.07553369  0.34820663  0.68892875     0.04800
C2061       C  0.06991187  0.37288352  0.70384981    -0.19900
C2062       C  0.05900187  0.39244149  0.68085724    -0.12200
C2063       C  0.05344244  0.38698253  0.64194318     0.13500
C2064       C  0.05911973  0.36228545  0.62718788    -0.22600
C2065       C  0.08731969  0.32779535  0.71429843    -0.05700
H2066       H  0.07400811  0.37689446  0.73370668     0.15000
C2067       C  0.04249632  0.40721934  0.61538211    -0.15900
H2068       H  0.05532348  0.35803856  0.59728788     0.09300
H2069       H  0.14914734  0.30643873  0.59296266     0.07200
H2070       H  0.13690890  0.29427947  0.54837732     0.08400
H2071       H  0.14366180  0.27215984  0.58715945     0.07400
H2072       H  0.02158999  0.31991987  0.62802553     0.02300
H2073       H  0.03101872  0.30176380  0.67000809     0.02800
H2074       H  0.01804184  0.28519646  0.62872532     0.06300
H2075       H  0.09009819  0.33500069  0.74401450     0.05300
H2076       H  0.10658012  0.32194476  0.70300909    -0.00500
H2077       H  0.07438029  0.31052917  0.71515146     0.01000
H2078       H  0.04117558  0.39997751  0.58547343     0.04700
H2079       H  0.05519948  0.42467713  0.61555374     0.06600
H2080       H  0.02257718  0.41263532  0.62438668     0.07500
C2081       C  0.98863476  0.83268886  0.57668489    -0.22200
C2082       C  0.01441747  0.83473921  0.58950525     0.09800
C2083       C  0.03223598  0.81468818  0.58157617     0.10200
C2084       C  0.02373649  0.79275995  0.56125174    -0.17100
C2085       C  0.99780701  0.79037384  0.54932598    -0.27500
C2086       C  0.98005842  0.81063228  0.55661617     0.18500
C2087       C  0.02177708  0.85686955  0.61420183     0.12500
C2088       C  0.05990013  0.81602289  0.59578530    -0.11900
H2089       H  0.03716868  0.77702527  0.55557225     0.12800
C2090       C  0.95197926  0.80933968  0.54436620    -0.22700
H2091       H  0.97500218  0.84809930  0.58320485     0.08400
C2092       C  0.03298099  0.87966279  0.59934933     0.04800
C2093       C  0.04003577  0.89981690  0.62454209    -0.19900
C2094       C  0.03567462  0.89772268  0.66406377    -0.12200
C2095       C  0.02453869  0.87463821  0.67877016     0.13500
C2096       C  0.01778138  0.85452340  0.65354849    -0.22600
C2097       C  0.03708901  0.88277592  0.55698982    -0.05700
H2098       H  0.04837491  0.91752799  0.61325572     0.15000
C2099       C  0.02047215  0.87061207  0.72104105    -0.15900
H2100       H  0.00933904  0.83675892  0.66452111     0.09300
H2101       H  0.94759403  0.82586756  0.52513561     0.07200
H2102       H  0.93931855  0.81063671  0.56992628     0.08400
H2103       H  0.94707528  0.79114206  0.52890960     0.07400
H2104       H  0.06012942  0.81707909  0.62749157     0.02300
H2105       H  0.06970171  0.83346986  0.58416690     0.02800
H2106       H  0.07123142  0.79869618  0.58691810     0.06300
H2107       H  0.04595323  0.90186651  0.55013403     0.05300
H2108       H  0.01814053  0.88134133  0.54180921    -0.00500
H2109       H  0.05017673  0.86733826  0.54616297     0.01000
H2110       H  0.00536006  0.88403114  0.73194145     0.04700
H2111       H  0.03902379  0.87396914  0.73662686     0.06600
H2112       H  0.01386217  0.85055267  0.72741194     0.07500
C2113       C  0.01244687  0.86708685  0.90757855    -0.22200
C2114       C  0.01783527  0.84258177  0.89195423     0.09800
C2115       C  0.02811399  0.84070021  0.85467036     0.10200
C2116       C  0.03366512  0.86352102  0.83427451    -0.17100
C2117       C  0.02937541  0.88802406  0.85068763    -0.27500
C2118       C  0.01823081  0.88986124  0.88741872     0.18500
C2119       C  0.01501490  0.81945213  0.91673024     0.12500
C2120       C  0.03372132  0.81463889  0.83691217    -0.11900
H2121       H  0.04205272  0.86225961  0.80597918     0.12800
C2122       C  0.01269421  0.91590045  0.90544405    -0.22700
H2123       H  0.00453957  0.86836576  0.93620369     0.08400
C2124       C  0.03530192  0.81203270  0.94159219     0.04800
C2125       C  0.03177994  0.79071249  0.96579009    -0.19900
C2126       C  0.00816741  0.77703763  0.96670039    -0.12200
C2127       C  0.98765271  0.78477190  0.94218444     0.13500
C2128       C  0.99151100  0.80562525  0.91698060    -0.22600
C2129       C  0.06048248  0.82700445  0.94314363    -0.05700
H2130       H  0.04730085  0.78502899  0.98499544     0.15000
C2131       C  0.95140038  0.78183387  0.44287511    -0.15900
H2132       H  0.97578389  0.81172866  0.89837803     0.09300
H2133       H  0.00346217  0.91386679  0.93391952     0.07200
H2134       H  0.99932427  0.92714060  0.88682516     0.08400
H2135       H  0.03109388  0.92691174  0.90924893     0.07400
H2136       H  0.01549620  0.80311872  0.83497046     0.02300
H2137       H  0.04805194  0.80398728  0.85469423     0.02800
H2138       H  0.04180692  0.81658740  0.80767046     0.06300
H2139       H  0.07424824  0.81868980  0.96432015     0.05300
H2140       H  0.05664026  0.84745962  0.95149943    -0.00500
H2141       H  0.06991881  0.82661282  0.91467242     0.01000
H2142       H  0.93928752  0.79869703  0.45140573     0.04700
H2143       H  0.94785440  0.76605886  0.46362115     0.06600
H2144       H  0.94501458  0.77494709  0.41421183     0.07500
C2145       C  0.02420810  0.69022976  0.90911815    -0.22200
C2146       C  0.00124994  0.67683213  0.90023319     0.09800
C2147       C  0.97746511  0.68507551  0.91587732     0.10200
C2148       C  0.97751688  0.70527784  0.94282625    -0.17100
C2149       C  0.00081628  0.71727800  0.95420933    -0.27500
C2150       C  0.02437887  0.71023845  0.93632920     0.18500
C2151       C  0.00355818  0.65135940  0.88127880     0.12500
C2152       C  0.95234187  0.67162174  0.90564026    -0.11900
H2153       H  0.95231945  0.71987088  0.43743705     0.12800
C2154       C  0.05030599  0.72171826  0.94751632    -0.22700
H2155       H  0.04244203  0.68360967  0.89709118     0.08400
C2156       C  0.00383921  0.64858166  0.84124944     0.04800
C2157       C  0.00811452  0.62391724  0.82535732    -0.19900
C2158       C  0.01242138  0.60225450  0.84879094    -0.12200
C2159       C  0.01127234  0.60498998  0.88893952     0.13500
C2160       C  0.00688616  0.62960109  0.90468099    -0.22600
C2161       C  0.99981742  0.67159097  0.81554578    -0.05700
H2162       H  0.00866215  0.62160290  0.79454967     0.15000
C2163       C  0.01400351  0.58202738  0.91521421    -0.15900
H2164       H  0.00638468  0.63203475  0.93548153     0.09300
H2165       H  0.05931271  0.73095104  0.92218265     0.07200
H2166       H  0.06332007  0.70609166  0.95799613     0.08400
H2167       H  0.04888932  0.73655288  0.97036563     0.07400
H2168       H  0.95328908  0.65085006  0.91384289     0.02300
H2169       H  0.94889161  0.67300451  0.87437776     0.02800
H2170       H  0.93371076  0.69625842  0.38681925     0.06300
H2171       H  0.00057794  0.66597755  0.78487444     0.05300
H2172       H  0.01519931  0.68630413  0.82103203    -0.00500
H2173       H  0.98053252  0.68039223  0.82118575     0.01000
H2174       H  0.01084380  0.58755001  0.94557278     0.04700
H2175       H  0.03385272  0.57384302  0.91297789     0.06600
H2176       H  0.99944308  0.56693168  0.90745192     0.07500
loop_ 
_geom_bond_atom_site_label_1 
_geom_bond_atom_site_label_2 
_geom_bond_distance 
_geom_bond_site_symmetry_2 
_ccdc_geom_bond_type 
N1            C2   1.350       .  A
N1         C1093   1.349       .  A
N1         C1038   1.436       .  S
C2         C1061   1.471       .  S
C2         C1091   1.383       .  A
C3            C4   1.374       .  A
C3         C1090   1.383   1_554  A
C3            H6   1.082   1_455  S
C4            C5   1.379       .  A
C4            H7   1.082       .  S
C5         N1089   1.353   1_554  A
C5          C997   1.467       .  S
N8           C12   1.359       .  A
N8            C9   1.355       .  A
N8          C933   1.442       .  S
C9          C965   1.478       .  S
C9           C10   1.381       .  A
C10        C1099   1.373   1_554  A
C10          H13   1.082       .  S
C11        C1098   1.372       .  A
C11        C1100   1.381       .  A
C11          H14   1.081       .  S
C12        C1998   1.483   1_554  S
C12        C1099   1.382   1_554  A
N15          C16   1.352       .  A
N15        C1107   1.349       .  A
N15         C869   1.436       .  S
C16         C814   1.476       .  S
C16        C1105   1.385       .  A
C17          C18   1.375       .  A
C17        C1104   1.385   1_554  A
C17          H20   1.082       .  S
C18          C19   1.380       .  A
C18          H21   1.082       .  S
C19        N1103   1.354   1_554  A
C19         C846   1.476       .  S
N22          C26   1.355   1_554  A
N22          C23   1.353       .  A
N22         C782   1.439       .  S
C23         C709   1.477       .  S
C23          C24   1.382       .  A
C24        C1113   1.377   1_554  A
C24          H27   1.082       .  S
C25        C1112   1.376       .  A
C25        C1114   1.383       .  A
C25          H28   1.082       .  S
C26        C1829   1.477       .  S
C26        C1113   1.382       .  A
N29          C30   1.353       .  A
N29        C1121   1.353       .  A
N29         C677   1.434       .  S
C30         C622   1.476       .  S
C30        C1119   1.382       .  A
C31          C32   1.376       .  A
C31        C1118   1.381   1_554  A
C31          H34   1.082       .  S
C32          C33   1.382       .  A
C32          H35   1.082       .  S
C33        N1117   1.353   1_554  A
C33         C645   1.476       .  S
N36          C40   1.355   1_554  A
N36          C37   1.355       .  A
N36         C581   1.439       .  S
C37         C517   1.480       .  S
C37          C38   1.385       .  A
C38        C1127   1.375   1_554  A
C38          H41   1.082   1_554  S
C39        C1126   1.376       .  A
C39        C1128   1.382       .  A
C39          H42   1.082       .  S
C40        C1637   1.478       .  S
C40        C1127   1.381       .  A
N43          C47   1.349       .  A
N43          C44   1.352       .  A
N43         C462   1.437       .  S
C44         C494   1.470       .  S
C44          C45   1.383       .  A
C45        C1134   1.375   1_554  A
C45          H48   1.082       .  S
C46        C1133   1.371       .  A
C46        C1135   1.380       .  A
C46          H49   1.082       .  S
C47        C1509   1.467   1_554  S
C47        C1134   1.379   1_554  A
N50          C51   1.354       .  A
N50        C1142   1.355       .  A
N50         C357   1.441       .  S
C51         C389   1.477       .  S
C51        C1140   1.385       .  A
C52          C53   1.377       .  A
C52        C1139   1.385   1_554  A
C52          H55   1.082       .  S
C53          C54   1.380       .  A
C53          H56   1.082       .  S
C54        N1138   1.352   1_554  A
C54         C325   1.472       .  S
Zr57         O58   2.438       .  S
Zr57         O59   2.434       .  S
Zr57         O60   2.438       .  S
Zr57         O63   2.421       .  S
Zr57         O65   2.377       .  S
Zr57         O66   2.387       .  S
Zr57         O67   2.405       .  S
Zr57         O68   2.407       .  S
O58         H114   0.990       .  S
O58         H122   0.990       .  S
O59          C79   1.284       .  A
O60          C81   1.286       .  A
O61         Zr71   2.433       .  S
O61          C80   1.285       .  A
O62         Zr70   2.430       .  S
O62          C81   1.284       .  A
O63          C80   1.283       .  A
O64         Zr72   2.425       .  S
O64          C79   1.283       .  A
O65         Zr70   2.388       .  S
O65         Zr72   2.372       .  S
O66         Zr71   2.386       .  S
O66         Zr72   2.375       .  S
O66         H101   0.965       .  S
O67         Zr70   2.396       .  S
O67         Zr87   2.400       .  S
O67         H104   0.966       .  S
O68         Zr71   2.395       .  S
O68         Zr87   2.398       .  S
Zr69         O94   2.436       .  S
Zr69         O88   2.432       .  S
Zr69         O96   2.423       .  S
Zr69         O84   2.423       .  S
Zr69         O75   2.402       .  S
Zr69         O76   2.402       .  S
Zr69         O77   2.376       .  S
Zr69         O78   2.379       .  S
Zr70         O89   2.435       .  S
Zr70         O82   2.434       .  S
Zr70         O83   2.427       .  S
Zr70         O76   2.393       .  S
Zr70         O77   2.381       .  S
Zr71         O73   2.436       .  S
Zr71         O95   2.438       .  S
Zr71         O97   2.439       .  S
Zr71         O75   2.394       .  S
Zr71         O78   2.386       .  S
Zr72         O98   2.435       .  S
Zr72         O99   2.435       .  S
Zr72         O74   2.438       .  S
Zr72         O75   2.405       .  S
Zr72         O76   2.392       .  S
O73         H110   0.990       .  S
O74         H105   0.990       .  S
O74         H119   0.990       .  S
O76         H102   0.966       .  S
O77         Zr87   2.369       .  S
O78         Zr87   2.376       .  S
O78         H103   0.966       .  S
C79         C686   1.475       .  S
C80         C398   1.475       .  S
C81         C654   1.485       .  S
O82         H118   0.990       .  S
O83          C85   1.285       .  A
O84          C85   1.283       .  A
C85         C485   1.481       .  S
O86         Zr87   2.439       .  S
O86         H115   0.990       .  S
Zr87         O90   2.436       .  S
Zr87         O91   2.439       .  S
Zr87         O92   2.432       .  S
O88          C93   1.283       .  A
O89         H106   0.990       .  S
O89         H121   0.990       .  S
O90         H107   0.990       .  S
O91         H111   0.990       .  S
O91         H120   0.990       .  S
O92          C93   1.284       .  A
C93         C590   1.473       .  S
O94         H113   0.989       .  S
O94         H117   0.990       .  S
O95         H109   0.990       .  S
O95         H116   0.990       .  S
O96         C100   1.282       .  A
O97         C100   1.286       .  A
O98         H108   0.990       .  S
O99         H112   0.990       .  S
C100        C558   1.493       .  S
Zr123       O124   2.438       .  S
Zr123       O125   2.429       .  S
Zr123       O126   2.436       .  S
Zr123       O129   2.435       .  S
Zr123       O131   2.383   1_565  S
Zr123       O132   2.382       .  S
Zr123       O133   2.399       .  S
Zr123       O134   2.397       .  S
O124        H180   0.990       .  S
O124        H188   0.990       .  S
O125        C145   1.283       .  A
O126        C147   1.285       .  A
O127       Zr137   2.434       .  S
O127        C146   1.285       .  A
O128       Zr136   2.431       .  S
O128        C147   1.285   1_545  A
O129        C146   1.286       .  A
O130       Zr138   2.428   1_565  S
O130        C145   1.283       .  A
O131       Zr136   2.393       .  S
O131       Zr138   2.374       .  S
O132       Zr137   2.384       .  S
O132       Zr138   2.371   1_565  S
O132        H167   0.966       .  S
O133       Zr136   2.397   1_565  S
O133       Zr153   2.393       .  S
O133        H170   0.966       .  S
O134       Zr137   2.393       .  S
O134       Zr153   2.395       .  S
Zr135       O160   2.441       .  S
Zr135       O154   2.431       .  S
Zr135       O162   2.425       .  S
Zr135       O150   2.412       .  S
Zr135       O141   2.399       .  S
Zr135       O142   2.405       .  S
Zr135       O143   2.376       .  S
Zr135       O144   2.378   1_545  S
Zr136       O155   2.437       .  S
Zr136       O148   2.435       .  S
Zr136       O149   2.432       .  S
Zr136       O142   2.397       .  S
Zr136       O143   2.385       .  S
Zr137       O139   2.434       .  S
Zr137       O161   2.438       .  S
Zr137       O163   2.432       .  S
Zr137       O141   2.391   1_565  S
Zr137       O144   2.385       .  S
Zr138       O164   2.436       .  S
Zr138       O165   2.436       .  S
Zr138       O140   2.437       .  S
Zr138       O141   2.402       .  S
Zr138       O142   2.395       .  S
O139        H176   0.990       .  S
O140        H171   0.990       .  S
O140        H185   0.990       .  S
O142        H168   0.966       .  S
O143       Zr153   2.368   1_545  S
O144       Zr153   2.375       .  S
O144        H169   0.966       .  S
C145        C878   1.472       .  S
C146        C613   1.477       .  S
C147        C837   1.490       .  S
O148        H184   0.990       .  S
O149        C151   1.284       .  A
O150        C151   1.282       .  A
C151        C526   1.480       .  S
O152       Zr153   2.434       .  S
O152        H181   0.990       .  S
Zr153       O156   2.436       .  S
Zr153       O157   2.436       .  S
Zr153       O158   2.428       .  S
O154        C159   1.283       .  A
O155        H172   0.990       .  S
O155        H187   0.990       .  S
O156        H173   0.990       .  S
O157        H177   0.990       .  S
O157        H186   0.990       .  S
O158        C159   1.283   1_565  A
C159        C773   1.471       .  S
O160        H179   0.990       .  S
O160        H183   0.990       .  S
O161        H175   0.990       .  S
O161        H182   0.990       .  S
O162        C166   1.282       .  A
O163        C166   1.286   1_565  A
O164        H174   0.990       .  S
O165        H178   0.990       .  S
C166        C750   1.496       .  S
Zr189       O190   2.438   1_455  S
Zr189       O191   2.439       .  S
Zr189       O192   2.420       .  S
Zr189       O195   2.415   1_455  S
Zr189       O197   2.376       .  S
Zr189       O198   2.378       .  S
Zr189       O199   2.400       .  S
Zr189       O200   2.403   1_565  S
O190        H246   0.990       .  S
O190        H254   0.990       .  S
O191        C211   1.285       .  A
O192        C213   1.282       .  A
O193       Zr203   2.443   1_665  S
O193        C212   1.287       .  A
O194       Zr202   2.413       .  S
O194        C213   1.282       .  A
O195        C212   1.282       .  A
O196       Zr204   2.428       .  S
O196        C211   1.282       .  A
O197       Zr202   2.392       .  S
O197       Zr204   2.373       .  S
O198       Zr203   2.381   1_565  S
O198       Zr204   2.372       .  S
O198        H233   0.966       .  S
O199       Zr202   2.390       .  S
O199       Zr219   2.394   1_565  S
O199        H236   0.966       .  S
O200       Zr203   2.386       .  S
O200       Zr219   2.398       .  S
Zr201       O226   2.434       .  S
Zr201       O220   2.441       .  S
Zr201       O228   2.429       .  S
Zr201       O216   2.455       .  S
Zr201       O207   2.405       .  S
Zr201       O208   2.402   1_545  S
Zr201       O209   2.375       .  S
Zr201       O210   2.387       .  S
Zr202       O221   2.436       .  S
Zr202       O214   2.434       .  S
Zr202       O215   2.420       .  S
Zr202       O208   2.394       .  S
Zr202       O209   2.384   1_565  S
Zr203       O205   2.435   1_455  S
Zr203       O227   2.438       .  S
Zr203       O229   2.420       .  S
Zr203       O207   2.398       .  S
Zr203       O210   2.389       .  S
Zr204       O230   2.435       .  S
Zr204       O231   2.438       .  S
Zr204       O206   2.437       .  S
Zr204       O207   2.396   1_565  S
Zr204       O208   2.400       .  S
O205        H242   0.990       .  S
O206        H237   0.990       .  S
O206        H251   0.990       .  S
O208        H234   0.966       .  S
O209       Zr219   2.376       .  S
O210       Zr219   2.376       .  S
O210        H235   0.966       .  S
C211       C1029   1.478       .  S
C212        C805   1.477       .  S
C213       C1006   1.472       .  S
O214        H250   0.990       .  S
O215        C217   1.283   1_565  A
O216        C217   1.287       .  A
C217        C718   1.484       .  S
O218       Zr219   2.439   1_655  S
O218        H247   0.990       .  S
Zr219       O222   2.437       .  S
Zr219       O223   2.439   1_455  S
Zr219       O224   2.422       .  S
O220        C225   1.285       .  A
O221        H238   0.990       .  S
O221        H253   0.990       .  S
O222        H239   0.990       .  S
O223        H243   0.990   1_655  S
O223        H252   0.990       .  S
O224        C225   1.282       .  A
C225        C942   1.472       .  S
O226        H245   0.990       .  S
O226        H249   0.990       .  S
O227        H241   0.990       .  S
O227        H248   0.990   1_545  S
O228        C232   1.283       .  A
O229        C232   1.284       .  A
O230        H240   0.990       .  S
O231        H244   0.990       .  S
C232        C901   1.492       .  S
Zr255       O256   2.438       .  S
Zr255       O257   2.433       .  S
Zr255       O258   2.419       .  S
Zr255       O261   2.421   1_655  S
Zr255       O263   2.377       .  S
Zr255       O264   2.377   1_655  S
Zr255       O265   2.401   1_655  S
Zr255       O266   2.400   1_655  S
O256        H312   0.990       .  S
O256        H320   0.990       .  S
O257        C277   1.284       .  A
O258        C279   1.282       .  A
O259       Zr269   2.435       .  S
O259        C278   1.284       .  A
O260       Zr268   2.423   1_655  S
O260        C279   1.282       .  A
O261        C278   1.282       .  A
O262       Zr270   2.417   1_655  S
O262        C277   1.281       .  A
O263       Zr268   2.388   1_655  S
O263       Zr270   2.376   1_655  S
O264       Zr269   2.381       .  S
O264       Zr270   2.378       .  S
O264        H299   0.966       .  S
O265       Zr268   2.391       .  S
O265       Zr285   2.395       .  S
O265        H302   0.966       .  S
O266       Zr269   2.383       .  S
O266       Zr285   2.404       .  S
Zr267       O292   2.441       .  S
Zr267       O286   2.421       .  S
Zr267       O294   2.436       .  S
Zr267       O282   2.445       .  S
Zr267       O273   2.399       .  S
Zr267       O274   2.400       .  S
Zr267       O275   2.377       .  S
Zr267       O276   2.386       .  S
Zr268       O287   2.439       .  S
Zr268       O280   2.434   1_455  S
Zr268       O281   2.420       .  S
Zr268       O274   2.399       .  S
Zr268       O275   2.382       .  S
Zr269       O271   2.433       .  S
Zr269       O293   2.439       .  S
Zr269       O295   2.406       .  S
Zr269       O273   2.401       .  S
Zr269       O276   2.387       .  S
Zr270       O296   2.435       .  S
Zr270       O297   2.436       .  S
Zr270       O272   2.437   1_455  S
Zr270       O273   2.393       .  S
Zr270       O274   2.392       .  S
O271        H308   0.990       .  S
O272        H303   0.990       .  S
O272        H317   0.990       .  S
O274        H300   0.966       .  S
O275       Zr285   2.366       .  S
O276       Zr285   2.372       .  S
O276        H301   0.966       .  S
C277        C366   1.470       .  S
C278       C1070   1.469       .  S
C279        C334   1.465       .  S
O280        H316   0.990       .  S
O281        C283   1.283       .  A
O282        C283   1.288       .  A
C283        C974   1.485       .  S
O284       Zr285   2.438       .  S
O284        H313   0.990       .  S
Zr285       O288   2.438       .  S
Zr285       O289   2.438       .  S
Zr285       O290   2.431       .  S
O286        C291   1.282       .  A
O287        H304   0.990       .  S
O287        H319   0.990       .  S
O288        H305   0.990       .  S
O289        H309   0.990       .  S
O289        H318   0.990       .  S
O290        C291   1.284       .  A
C291        C453   1.473       .  S
O292        H311   0.990       .  S
O292        H315   0.990       .  S
O293        H307   0.990       .  S
O293        H314   0.990       .  S
O294        C298   1.286       .  A
O295        C298   1.280       .  A
O296        H306   0.990   1_455  S
O297        H310   0.990       .  S
C298        C430   1.465       .  S
C321        C322   1.400       .  A
C321        C326   1.401       .  A
C321        H331   1.085       .  S
C322        C327   1.472       .  S
C322        C323   1.408       .  A
C323        C324   1.401       .  A
C323        C328   1.507       .  S
C324        C325   1.402       .  A
C324        H329   1.083       .  S
C325        C326   1.414       .  A
C326        C330   1.507       .  S
C327        C332   1.409       .  A
C327        C336   1.400       .  A
C328        H344   1.111       .  S
C328        H345   1.109       .  S
C328        H346   1.110       .  S
C330        H342   1.110       .  S
C330       H1429   1.110       .  S
C330       H1431   1.107       .  S
C332        C333   1.401       .  A
C332        C337   1.506       .  S
C333        C334   1.402       .  A
C333        H338   1.085       .  S
C334        C335   1.413       .  A
C335        C336   1.399       .  A
C335        C339   1.506       .  S
C336        H340   1.085       .  S
C337        H347   1.111       .  S
C337        H348   1.110       .  S
C337        H349   1.110       .  S
C339        H350   1.110       .  S
C339        H351   1.108       .  S
C339        H352   1.111       .  S
H341       C1418   1.110       .  S
H343       C1418   1.106       .  S
C353        C354   1.402       .  A
C353        C358   1.404       .  A
C353        H363   1.084       .  S
C354        C359   1.481       .  S
C354        C355   1.412       .  A
C355        C356   1.402       .  A
C355        C360   1.507       .  S
C356        C357   1.402       .  A
C356       H1449   1.083       .  S
C357        C358   1.413       .  A
C358        C362   1.506       .  S
C359        C364   1.411       .  A
C359        C368   1.402       .  A
C360        H376   1.109       .  S
C360        H377   1.110       .  S
C360       H1466   1.111       .  S
H361       C1444   1.083       .  S
C362        H373   1.107       .  S
C362        H374   1.111       .  S
C362        H375   1.108       .  S
C364        C365   1.403       .  A
C364        C369   1.506       .  S
C365        C366   1.402       .  A
C365        H370   1.080       .  S
C366        C367   1.415       .  A
C367        C368   1.400       .  A
C367        C371   1.509       .  S
C368        H372   1.085       .  S
C369        H379   1.111       .  S
C369        H380   1.109       .  S
C369        H381   1.110       .  S
C371        H382   1.110       .  S
C371        H383   1.107       .  S
C371        H384   1.110       .  S
H378       C1448   1.111       .  S
C385        C386   1.399       .  A
C385        C390   1.399       .  A
C385        H395   1.085       .  S
C386        C391   1.475       .  S
C386        C387   1.409       .  A
C387        C388   1.402       .  A
C387        C392   1.506       .  S
C388        C389   1.404       .  A
C388        H393   1.083       .  S
C389        C390   1.415       .  A
C390        C394   1.507       .  S
C391        C396   1.410       .  A
C391        C400   1.399       .  A
C392        H408   1.110       .  S
C392        H409   1.110       .  S
C392        H410   1.111       .  S
C394        H405   1.110       .  S
C394        H406   1.110       .  S
C394        H407   1.108       .  S
C396        C397   1.399       .  A
C396        C401   1.508       .  S
C397        C398   1.404       .  A
C397        H402   1.084       .  S
C398        C399   1.418       .  A
C399        C400   1.403       .  A
C399        C403   1.507       .  S
C400        H404   1.084       .  S
C401        H411   1.111       .  S
C401        H412   1.110       .  S
C401        H413   1.110       .  S
C403        H414   1.110       .  S
C403        H415   1.107       .  S
C403        H416   1.111       .  S
C417        C418   1.401       .  A
C417        C422   1.400       .  A
C417        H427   1.085       .  S
C418        C423   1.471       .  S
C418        C419   1.409       .  A
C419        C420   1.398       .  A
C419        C424   1.508       .  S
C420        C421   1.402       .  A
C420        H425   1.084       .  S
C421       C1135   1.473       .  S
C421        C422   1.413       .  A
C422       C1514   1.506       .  S
C423        C428   1.410       .  A
C423        C432   1.398       .  A
C424        H440   1.111       .  S
C424        H441   1.108       .  S
C424        H442   1.111       .  S
C426       C1510   1.508       .  S
C426        H437   1.111       .  S
C426        H438   1.110       .  S
C426        H439   1.109       .  S
C428        C429   1.403       .  A
C428        C433   1.507       .  S
C429        C430   1.402       .  A
C429        H434   1.084       .  S
C430        C431   1.413       .  A
C431        C432   1.397       .  A
C431        C435   1.508       .  S
C432        H436   1.084       .  S
C433        H443   1.111       .  S
C433        H444   1.110       .  S
C433        H445   1.108       .  S
C435        H446   1.108       .  S
C435        H447   1.109       .  S
C435        H448   1.111       .  S
C449        C450   1.401       .  A
C449        C454   1.405       .  A
C449        H459   1.084       .  S
C450        C455   1.478       .  S
C450        C451   1.411       .  A
C451        C452   1.401       .  A
C451        C456   1.508       .  S
C452        C453   1.402       .  A
C452        H457   1.084       .  S
C453        C454   1.414       .  A
C454        C458   1.506       .  S
C455        C460   1.410       .  A
C455        C464   1.401       .  A
C456        H472   1.110       .  S
C456        H473   1.110       .  S
C456        H474   1.111       .  S
C458        H469   1.111       .  S
C458        H470   1.110       .  S
C458        H471   1.109       .  S
C460        C461   1.400       .  A
C460        C465   1.507       .  S
C461        C462   1.401       .  A
C461        H466   1.082       .  S
C462        C463   1.413       .  A
C463        C464   1.404       .  A
C463        C467   1.505       .  S
C464        H468   1.084       .  S
C465        H475   1.111       .  S
C465        H476   1.110       .  S
C465        H477   1.110       .  S
C467        H478   1.110       .  S
C467        H479   1.107       .  S
C467       H1568   1.110       .  S
H480       C1555   1.110       .  S
C481        C482   1.397       .  A
C481        C486   1.403       .  A
C481        H491   1.084       .  S
C482        C487   1.475       .  S
C482        C483   1.411       .  A
C483        C484   1.400       .  A
C483        C488   1.508       .  S
C484        C485   1.405       .  A
C484        H489   1.084       .  S
C485        C486   1.420       .  A
C486        C490   1.505       .  S
C487        C492   1.410       .  A
C487        C496   1.400       .  A
C488        H504   1.110       .  S
C488        H505   1.110       .  S
C488        H506   1.111       .  S
C490        H501   1.111       .  S
C490        H502   1.110       .  S
C490        H503   1.109       .  S
C492        C493   1.402       .  A
C492        C497   1.506       .  S
C493        C494   1.402       .  A
C493        H498   1.084       .  S
C494        C495   1.412       .  A
C495        C496   1.400       .  A
C495        C499   1.506       .  S
C496        H500   1.084       .  S
C497        H507   1.111       .  S
C497        H508   1.110       .  S
C497        H509   1.110       .  S
C499        H510   1.111       .  S
C499        H511   1.106       .  S
C499        H512   1.110       .  S
C513        C514   1.398       .  A
C513        C518   1.399       .  A
C513        H523   1.085       .  S
C514        C519   1.474       .  S
C514        C515   1.409       .  A
C515        C516   1.403       .  A
C515        C520   1.506       .  S
C516        C517   1.405       .  A
C516        H521   1.082       .  S
C517        C518   1.416       .  A
C518        C522   1.507       .  S
C519        C524   1.406       .  A
C519        C528   1.400       .  A
C520        H536   1.110       .  S
C520        H537   1.110       .  S
C520        H538   1.111       .  S
C522        H533   1.110       .  S
C522        H534   1.111       .  S
C522        H535   1.108       .  S
C524        C525   1.401       .  A
C524        C529   1.506       .  S
C525        C526   1.409       .  A
C525        H530   1.084       .  S
C526        C527   1.417       .  A
C527        C528   1.400       .  A
C527        C531   1.508       .  S
C528        H532   1.084       .  S
C529        H539   1.111       .  S
C529        H540   1.110       .  S
C529        H541   1.110       .  S
C531        H542   1.111       .  S
C531        H543   1.111       .  S
C531        H544   1.109       .  S
C545        C546   1.399       .  A
C545        C550   1.398       .  A
C545        H555   1.085       .  S
C546        C551   1.478       .  S
C546        C547   1.412       .  A
C547        C548   1.405       .  A
C547        C552   1.506       .  S
C548        C549   1.403       .  A
C548        H553   1.084       .  S
C549       C1128   1.475       .  S
C549        C550   1.415       .  A
C550       C1642   1.508       .  S
C551        C556   1.408       .  A
C551        C560   1.397       .  A
C552        H568   1.110       .  S
C552        H569   1.109       .  S
C552        H570   1.111       .  S
C554       C1638   1.508       .  S
C554        H565   1.110       .  S
C554        H567   1.106       .  S
C554       H1654   1.110       .  S
C556        C557   1.406       .  A
C556        C561   1.507       .  S
C557        C558   1.411       .  A
C557        H562   1.084       .  S
C558        C559   1.424       .  A
C559        C560   1.402       .  A
C559        C563   1.509       .  S
C560        H564   1.085       .  S
C561        H571   1.111       .  S
C561        H572   1.110       .  S
C561        H573   1.109       .  S
C563        H574   1.111       .  S
C563        H575   1.111       .  S
C563        H576   1.107       .  S
H566       C1642   1.110       .  S
C577        C578   1.401       .  A
C577        C582   1.402       .  A
C577        H587   1.084       .  S
C578        C583   1.483       .  S
C578        C579   1.411       .  A
C579        C580   1.406       .  A
C579        C584   1.505       .  S
C580        C581   1.403       .  A
C580        H585   1.084       .  S
C581        C582   1.412       .  A
C582        C586   1.504       .  S
C583        C588   1.412       .  A
C583        C592   1.401       .  A
C584        H600   1.110       .  S
C584        H601   1.110       .  S
C584        H602   1.111       .  S
C586        H597   1.110       .  S
C586        H598   1.110       .  S
C586        H599   1.108       .  S
C588        C589   1.407       .  A
C588        C593   1.505       .  S
C589        C590   1.403       .  A
C589        H594   1.084       .  S
C590        C591   1.414       .  A
C591        C592   1.402       .  A
C591        C595   1.509       .  S
C592        H596   1.085       .  S
C593        H603   1.111       .  S
C593        H604   1.110       .  S
C593        H605   1.110       .  S
C595        H606   1.110       .  S
C595        H607   1.109       .  S
C595        H608   1.111       .  S
C609        C610   1.403       .  A
C609        C614   1.403       .  A
C609        H619   1.085       .  S
C610        C615   1.483       .  S
C610        C611   1.409       .  A
C611        C612   1.406       .  A
C611        C616   1.505       .  S
C612        C613   1.405       .  A
C612        H617   1.084       .  S
C613        C614   1.416       .  A
C614        C618   1.509       .  S
C615        C620   1.411       .  A
C615        C624   1.401       .  A
C616        H632   1.110       .  S
C616        H633   1.109       .  S
C616        H634   1.111       .  S
C618        H629   1.111       .  S
C618        H630   1.110       .  S
C618        H631   1.107       .  S
C620        C621   1.405       .  A
C620        C625   1.506       .  S
C621        C622   1.402       .  A
C621        H626   1.084       .  S
C622        C623   1.415       .  A
C623        C624   1.404       .  A
C623       C1715   1.507       .  S
C624        H628   1.084       .  S
C625        H635   1.111       .  S
C625        H636   1.110       .  S
C625        H637   1.110       .  S
C627       C1711   1.507       .  S
C627        H638   1.111       .  S
C627        H639   1.108       .  S
C627        H640   1.110       .  S
C641        C642   1.400       .  A
C641        C646   1.400       .  A
C641        H651   1.085       .  S
C642        C647   1.481       .  S
C642        C643   1.412       .  A
C643        C644   1.407       .  A
C643        C648   1.505       .  S
C644        C645   1.403       .  A
C644        H649   1.084       .  S
C645        C646   1.414       .  A
C646        C650   1.508       .  S
C647        C652   1.412       .  A
C647        C656   1.398       .  A
C648        H664   1.110       .  S
C648        H665   1.110       .  S
C648        H666   1.111       .  S
C650        H661   1.110       .  S
C650        H662   1.110       .  S
C650        H663   1.108       .  S
C652        C653   1.404       .  A
C652        C657   1.507       .  S
C653        C654   1.406       .  A
C653        H658   1.084       .  S
C654        C655   1.419       .  A
C655        C656   1.404       .  A
C655        C659   1.506       .  S
C656        H660   1.084       .  S
C657        H667   1.111       .  S
C657        H668   1.110       .  S
C657        H669   1.110       .  S
C659        H670   1.108       .  S
C659        H671   1.110       .  S
C659        H672   1.111       .  S
C673        C674   1.401       .  A
C673        C678   1.403       .  A
C673        H683   1.084       .  S
C674        C679   1.480       .  S
C674        C675   1.412       .  A
C675        C676   1.402       .  A
C675        C680   1.507       .  S
C676        C677   1.400       .  A
C676        H681   1.082       .  S
C677        C678   1.412       .  A
C678        C682   1.505       .  S
C679        C684   1.411       .  A
C679        C688   1.399       .  A
C680        H696   1.110       .  S
C680        H697   1.110       .  S
C680        H698   1.111       .  S
C682        H693   1.110       .  S
C682        H694   1.110       .  S
C682        H695   1.108       .  S
C684        C685   1.408       .  A
C684        C689   1.505       .  S
C685        C686   1.405       .  A
C685        H690   1.084       .  S
C686        C687   1.416       .  A
C687        C688   1.398       .  A
C687        C691   1.509       .  S
C688        H692   1.085       .  S
C689        H699   1.111       .  S
C689        H700   1.110       .  S
C689        H701   1.110       .  S
C691        H702   1.111       .  S
C691        H703   1.106       .  S
C691        H704   1.110       .  S
C705        C706   1.402   1_565  A
C705        C710   1.403       .  A
C705        H715   1.084       .  S
C706        C711   1.483       .  S
C706        C707   1.410       .  A
C707        C708   1.404       .  A
C707        C712   1.506       .  S
C708        C709   1.402       .  A
C708        H713   1.084       .  S
C709        C710   1.415   1_545  A
C710        C714   1.506       .  S
C711        C716   1.412       .  A
C711        C720   1.401       .  A
C712        H728   1.110       .  S
C712        H729   1.110       .  S
C712        H730   1.111       .  S
C714        H725   1.110       .  S
C714        H726   1.110       .  S
C714        H727   1.104       .  S
C716        C717   1.402       .  A
C716        C721   1.508       .  S
C717        C718   1.404       .  A
C717        H722   1.084       .  S
C718        C719   1.417       .  A
C719        C720   1.409       .  A
C719        C723   1.504       .  S
C720        H724   1.084       .  S
C721        H731   1.111       .  S
C721        H732   1.110   1_545  S
C721        H733   1.111       .  S
C723        H734   1.111       .  S
C723        H735   1.111       .  S
C723        H736   1.107       .  S
C737        C738   1.398       .  A
C737        C742   1.399       .  A
C737        H747   1.085   1_545  S
C738        C743   1.477       .  S
C738        C739   1.410       .  A
C739        C740   1.404       .  A
C739        C744   1.506       .  S
C740        C741   1.403       .  A
C740        H745   1.084       .  S
C741       C1114   1.478       .  S
C741        C742   1.417       .  A
C742       C1834   1.509   1_545  S
C743        C748   1.406       .  A
C743        C752   1.397       .  A
C744        H760   1.110       .  S
C744        H761   1.110       .  S
C744        H762   1.111       .  S
C746       C1830   1.508   1_565  S
C746        H757   1.111       .  S
C746        H759   1.110       .  S
C746       H1846   1.107       .  S
C748        C749   1.402   1_545  A
C748        C753   1.508   1_545  S
C749        C750   1.412   1_565  A
C749        H754   1.083       .  S
C750        C751   1.426       .  A
C751        C752   1.405       .  A
C751        C755   1.509       .  S
C752        H756   1.084       .  S
C753        H763   1.111       .  S
C753        H764   1.110       .  S
C753        H765   1.110   1_565  S
C755        H766   1.111       .  S
C755        H767   1.110       .  S
C755        H768   1.110       .  S
H758       C1834   1.106       .  S
C769        C770   1.403       .  A
C769        C774   1.403       .  A
C769        H779   1.085       .  S
C770        C775   1.483       .  S
C770        C771   1.412       .  A
C771        C772   1.403   1_545  A
C771        C776   1.507   1_545  S
C772        C773   1.402   1_565  A
C772        H777   1.084       .  S
C773        C774   1.415       .  A
C774        C778   1.509       .  S
C775        C780   1.412       .  A
C775        C784   1.402   1_545  A
C776        H792   1.109       .  S
C776        H793   1.110       .  S
C776        H794   1.111       .  S
C778        H789   1.111       .  S
C778        H790   1.110       .  S
C778        H791   1.108       .  S
C780        C781   1.404       .  A
C780        C785   1.506       .  S
C781        C782   1.402       .  A
C781        H786   1.083       .  S
C782        C783   1.414   1_545  A
C783        C784   1.400       .  A
C783        C787   1.504       .  S
C784        H788   1.085       .  S
C785        H795   1.111       .  S
C785        H796   1.109       .  S
C785        H797   1.110       .  S
C787        H798   1.111       .  S
C787        H799   1.104       .  S
C787        H800   1.110       .  S
C801        C802   1.399       .  A
C801        C806   1.404       .  A
C801        H811   1.084       .  S
C802        C807   1.478       .  S
C802        C803   1.411       .  A
C803        C804   1.401       .  A
C803        C808   1.507       .  S
C804        C805   1.403       .  A
C804        H809   1.084       .  S
C805        C806   1.419       .  A
C806        C810   1.507       .  S
C807        C812   1.410       .  A
C807        C816   1.400       .  A
C808        H824   1.110       .  S
C808        H825   1.110       .  S
C808        H826   1.111       .  S
C810        H821   1.111       .  S
C810        H822   1.110       .  S
C810        H823   1.106       .  S
C812        C813   1.403       .  A
C812        C817   1.506       .  S
C813        C814   1.403       .  A
C813        H818   1.084       .  S
C814        C815   1.415       .  A
C815        C816   1.401       .  A
C815        C819   1.507       .  S
C816        H820   1.084       .  S
C817        H827   1.111   1_565  S
C817        H828   1.110       .  S
C817        H829   1.110   1_565  S
C819        H830   1.110       .  S
C819        H831   1.107       .  S
C819       H1920   1.110       .  S
H832       C1907   1.111       .  S
C833        C834   1.397       .  A
C833        C838   1.401       .  A
C833        H843   1.085       .  S
C834        C839   1.477       .  S
C834        C835   1.408       .  A
C835        C836   1.406       .  A
C835        C840   1.506       .  S
C836        C837   1.410       .  A
C836        H841   1.084       .  S
C837        C838   1.420       .  A
C838        C842   1.505       .  S
C839        C844   1.410       .  A
C839        C848   1.401       .  A
C840        H856   1.110       .  S
C840        H857   1.111   1_565  S
C840        H858   1.111   1_565  S
C842        H853   1.111       .  S
C842        H854   1.109       .  S
C842        H855   1.108       .  S
C844        C845   1.401       .  A
C844        C849   1.507   1_565  S
C845        C846   1.403       .  A
C845        H850   1.084       .  S
C846        C847   1.413       .  A
C847        C848   1.402       .  A
C847        C851   1.506       .  S
C848        H852   1.084       .  S
C849        H859   1.111       .  S
C849        H860   1.110   1_545  S
C849        H861   1.110       .  S
C851        H862   1.110       .  S
C851       H1951   1.106       .  S
C851       H1952   1.110   1_554  S
H863       C1939   1.108       .  S
H864       C1939   1.110       .  S
C865        C866   1.400       .  A
C865        C870   1.400       .  A
C865        H875   1.085       .  S
C866        C871   1.478       .  S
C866        C867   1.412       .  A
C867        C868   1.403       .  A
C867        C872   1.507   1_565  S
C868        C869   1.401       .  A
C868        H873   1.083       .  S
C869        C870   1.412       .  A
C870        C874   1.505       .  S
C871        C876   1.410       .  A
C871        C880   1.401       .  A
C872        H888   1.109       .  S
C872        H889   1.110       .  S
C872        H890   1.111       .  S
C874        H885   1.110       .  S
C874        H886   1.111       .  S
C874        H887   1.105       .  S
C876        C877   1.403       .  A
C876        C881   1.506       .  S
C877        C878   1.402       .  A
C877        H882   1.078       .  S
C878        C879   1.415       .  A
C879        C880   1.399       .  A
C879        C883   1.509       .  S
C880        H884   1.085       .  S
C881        H891   1.111       .  S
C881        H892   1.110       .  S
C881        H893   1.110       .  S
C883        H894   1.111       .  S
C883        H895   1.107       .  S
C883        H896   1.110       .  S
C897        C898   1.397       .  A
C897        C902   1.402       .  A
C897        H907   1.085       .  S
C898        C903   1.473       .  S
C898        C899   1.405       .  A
C899        C900   1.401       .  A
C899        C904   1.507       .  S
C900        C901   1.412       .  A
C900        H905   1.083       .  S
C901        C902   1.424       .  A
C902        C906   1.508       .  S
C903        C908   1.409       .  A
C903        C912   1.398       .  A
C904        H920   1.110       .  S
C904        H921   1.110       .  S
C904        H922   1.111       .  S
C906        H917   1.111       .  S
C906        H918   1.111       .  S
C906        H919   1.108       .  S
C908        C909   1.402       .  A
C908        C913   1.505       .  S
C909        C910   1.404       .  A
C909       H2002   1.083       .  S
C910       C1100   1.478       .  S
C910        C911   1.415       .  A
C911        C912   1.399       .  A
C911        C915   1.509       .  S
C912        H916   1.084       .  S
C913        H924   1.110       .  S
C913        H925   1.110       .  S
C913       H2011   1.111       .  S
H914       C1997   1.084   1_554  S
C915        H926   1.107       .  S
C915        H927   1.109       .  S
C915        H928   1.111       .  S
H923       C2001   1.111   1_554  S
C929        C930   1.403       .  A
C929        C934   1.402       .  A
C929        H939   1.085       .  S
C930        C935   1.483       .  S
C930        C931   1.411       .  A
C931        C932   1.404       .  A
C931        C936   1.506       .  S
C932        C933   1.403       .  A
C932        H937   1.082       .  S
C933        C934   1.414       .  A
C934        C938   1.504       .  S
C935        C940   1.412       .  A
C935        C944   1.403       .  A
C936        H952   1.110       .  S
C936        H953   1.110       .  S
C936        H954   1.111       .  S
C938        H949   1.110       .  S
C938       H2038   1.111       .  S
C938       H2039   1.107       .  S
C940        C941   1.405       .  A
C940        C945   1.506       .  S
C941        C942   1.403       .  A
C941        H946   1.084       .  S
C942        C943   1.414       .  A
C943        C944   1.403       .  A
C943        C947   1.508       .  S
C944        H948   1.085       .  S
C945        H955   1.111       .  S
C945        H956   1.109       .  S
C945        H957   1.110       .  S
C947        H958   1.111       .  S
C947        H959   1.108       .  S
C947        H960   1.110       .  S
H950       C2026   1.111       .  S
H951       C2026   1.108       .  S
C961        C962   1.400       .  A
C961        C966   1.403       .  A
C961        H971   1.084       .  S
C962        C967   1.482       .  S
C962        C963   1.414       .  A
C963        C964   1.405       .  A
C963        C968   1.507       .  S
C964        C965   1.402       .  A
C964        H969   1.084       .  S
C965        C966   1.414       .  A
C966        C970   1.508       .  S
C967        C972   1.410       .  A
C967        C976   1.400       .  A
C968        H984   1.110       .  S
C968        H985   1.110       .  S
C968        H986   1.111       .  S
C970        H981   1.111       .  S
C970        H982   1.108       .  S
C970        H983   1.109       .  S
C972        C973   1.407       .  A
C972        C977   1.505       .  S
C973        C974   1.407       .  A
C973        H978   1.084       .  S
C974        C975   1.419       .  A
C975        C976   1.401       .  A
C975        C979   1.509       .  S
C976        H980   1.085       .  S
C977        H987   1.111       .  S
C977        H988   1.110       .  S
C977        H989   1.110       .  S
C979        H990   1.111       .  S
C979        H991   1.110       .  S
C979        H992   1.109       .  S
C993        C994   1.399       .  A
C993        C998   1.397   1_455  A
C993       H1003   1.085   1_455  S
C994        C999   1.467       .  S
C994        C995   1.408       .  A
C995        C996   1.399       .  A
C995       C1000   1.507       .  S
C996        C997   1.402       .  A
C996       H1001   1.084       .  S
C997        C998   1.412   1_455  A
C998       C1002   1.506       .  S
C999       C1004   1.406       .  A
C999       C1008   1.398       .  A
C1000      H1016   1.110       .  S
C1000      H1017   1.110       .  S
C1000      H1018   1.111       .  S
C1002      H1013   1.110       .  S
C1002      H1014   1.110       .  S
C1002      H1015   1.106       .  S
C1004      C1005   1.400       .  A
C1004      C1009   1.506       .  S
C1005      C1006   1.407       .  A
C1005      H1010   1.084       .  S
C1006      C1007   1.416       .  A
C1007      C1008   1.397       .  A
C1007      C1011   1.507       .  S
C1008      H1012   1.085       .  S
C1009      H1019   1.111       .  S
C1009      H1020   1.110       .  S
C1009      H1021   1.110       .  S
C1011      H1022   1.109       .  S
C1011      H1023   1.110       .  S
C1011      H1024   1.111       .  S
C1025      C1026   1.400       .  A
C1025      C1030   1.402       .  A
C1025      H1035   1.084       .  S
C1026      C1031   1.482       .  S
C1026      C1027   1.411       .  A
C1027      C1028   1.407       .  A
C1027      C1032   1.506       .  S
C1028      C1029   1.404       .  A
C1028      H1033   1.081       .  S
C1029      C1030   1.415       .  A
C1030      C1034   1.507       .  S
C1031      C1036   1.412       .  A
C1031      C1040   1.401   1_455  A
C1032      H1048   1.110   1_455  S
C1032      H1049   1.110       .  S
C1032      H1050   1.111       .  S
C1034      H1045   1.111       .  S
C1034      H1046   1.111       .  S
C1034      H1047   1.107       .  S
C1036      C1037   1.403       .  A
C1036      C1041   1.506       .  S
C1037      C1038   1.400   1_455  A
C1037      H1042   1.083       .  S
C1038      C1039   1.413       .  A
C1039      C1040   1.402       .  A
C1039      C2131   1.505       .  S
C1040      H1044   1.084       .  S
C1041      H1051   1.111       .  S
C1041      H1052   1.110       .  S
C1041      H1053   1.110       .  S
C1043      C2127   1.505       .  S
C1043      H1054   1.111       .  S
C1043      H1055   1.106       .  S
C1043      H1056   1.110       .  S
C1057      C1058   1.402   1_455  A
C1057      C1062   1.400       .  A
C1057      H1067   1.085       .  S
C1058      C1063   1.482   1_655  S
C1058      C1059   1.413       .  A
C1059      C1060   1.404       .  A
C1059      C1064   1.506       .  S
C1060      C1061   1.401       .  A
C1060      H2153   1.084       .  S
C1061      C1062   1.413   1_655  A
C1062      C1066   1.508       .  S
C1063      C1068   1.413       .  A
C1063      C1072   1.403   1_455  A
C1064      H1080   1.109       .  S
C1064      H1081   1.110       .  S
C1064      H2170   1.111       .  S
H1065      C2148   1.084       .  S
C1066      H1077   1.110       .  S
C1066      H1078   1.110       .  S
C1066      H1079   1.108       .  S
C1068      C1069   1.407       .  A
C1068      C1073   1.506       .  S
C1069      C1070   1.403       .  A
C1069      H1074   1.084       .  S
C1070      C1071   1.409   1_455  A
C1071      C1072   1.400       .  A
C1071      C1075   1.507       .  S
C1072      H1076   1.084       .  S
C1073      H1083   1.111       .  S
C1073      H1084   1.109       .  S
C1073      H1085   1.111       .  S
C1075      H1086   1.111       .  S
C1075      H1087   1.110       .  S
C1075      H1088   1.110       .  S
H1082      C2152   1.111       .  S
N1089      C1090   1.354       .  A
N1089      C2126   1.444       .  S
C1090      C2149   1.469       .  S
C1091      C1092   1.379       .  A
C1091      H1094   1.082       .  S
C1092      C1093   1.380       .  A
C1092      H1095   1.082       .  S
C1093      C2085   1.470       .  S
N1096      C1100   1.357       .  A
N1096      C1097   1.353       .  A
N1096      C2021   1.442       .  S
C1097      C2053   1.474       .  S
C1097      C1098   1.383       .  A
C1098      H1101   1.082       .  S
C1099      H1102   1.081       .  S
N1103      C1104   1.354       .  A
N1103      C1957   1.441       .  S
C1104      C1902   1.478       .  S
C1105      C1106   1.377       .  A
C1105      H1108   1.082       .  S
C1106      C1107   1.379       .  A
C1106      H1109   1.082       .  S
C1107      C1934   1.469       .  S
N1110      C1114   1.356       .  A
N1110      C1111   1.353       .  A
N1110      C1870   1.440       .  S
C1111      C1797   1.475       .  S
C1111      C1112   1.381       .  A
C1112      H1115   1.082       .  S
C1113      H1116   1.082       .  S
N1117      C1118   1.352       .  A
N1117      C1765   1.436       .  S
C1118      C1710   1.472       .  S
C1119      C1120   1.377       .  A
C1119      H1122   1.082       .  S
C1120      C1121   1.381       .  A
C1120      H1123   1.082       .  S
C1121      C1733   1.477       .  S
N1124      C1128   1.354       .  A
N1124      C1125   1.352       .  A
N1124      C1669   1.440       .  S
C1125      C1605   1.475       .  S
C1125      C1126   1.383       .  A
C1126      H1129   1.082       .  S
C1127      H1130   1.082       .  S
N1131      C1135   1.359       .  A
N1131      C1132   1.355       .  A
N1131      C1550   1.447       .  S
C1132      C1582   1.472       .  S
C1132      C1133   1.382       .  A
C1133      H1136   1.082       .  S
C1134      H1137   1.082       .  S
N1138      C1139   1.353       .  A
N1138      C1445   1.438       .  S
C1139      C1477   1.479       .  S
C1140      C1141   1.375       .  A
C1140      H1143   1.082       .  S
C1141      C1142   1.379       .  A
C1141      H1144   1.082       .  S
C1142      C1413   1.475       .  S
Zr1145     O1146   2.437       .  S
Zr1145     O1147   2.432       .  S
Zr1145     O1148   2.430       .  S
Zr1145     O1151   2.419       .  S
Zr1145     O1153   2.374       .  S
Zr1145     O1154   2.381       .  S
Zr1145     O1155   2.403       .  S
Zr1145     O1156   2.403       .  S
O1146      H1202   0.990       .  S
O1146      H1210   0.990       .  S
O1147      C1167   1.283       .  A
O1148      C1169   1.284       .  A
O1149     Zr1159   2.434       .  S
O1149      C1168   1.286       .  A
O1150     Zr1158   2.443       .  S
O1150      C1169   1.287       .  A
O1151      C1168   1.283       .  A
O1152     Zr1160   2.420       .  S
O1152      C1167   1.282       .  A
O1153     Zr1158   2.390       .  S
O1153     Zr1160   2.378       .  S
O1154     Zr1159   2.381       .  S
O1154     Zr1160   2.371       .  S
O1154      H1189   0.966       .  S
O1155     Zr1158   2.393       .  S
O1155     Zr1175   2.402       .  S
O1155      H1192   0.966       .  S
O1156     Zr1159   2.393       .  S
O1156     Zr1175   2.396       .  S
Zr1157     O1182   2.437       .  S
Zr1157     O1176   2.431       .  S
Zr1157     O1184   2.428       .  S
Zr1157     O1172   2.429       .  S
Zr1157     O1163   2.402       .  S
Zr1157     O1164   2.399       .  S
Zr1157     O1165   2.379       .  S
Zr1157     O1166   2.381       .  S
Zr1158     O1177   2.435       .  S
Zr1158     O1170   2.434       .  S
Zr1158     O1171   2.429       .  S
Zr1158     O1164   2.395       .  S
Zr1158     O1165   2.387       .  S
Zr1159     O1161   2.435       .  S
Zr1159     O1183   2.437       .  S
Zr1159     O1185   2.432       .  S
Zr1159     O1163   2.395       .  S
Zr1159     O1166   2.388       .  S
Zr1160     O1186   2.437       .  S
Zr1160     O1187   2.437       .  S
Zr1160     O1162   2.437       .  S
Zr1160     O1163   2.401       .  S
Zr1160     O1164   2.385       .  S
O1161      H1198   0.990       .  S
O1162      H1193   0.990       .  S
O1162      H1207   0.990       .  S
O1164      H1190   0.965       .  S
O1165     Zr1175   2.377       .  S
O1166     Zr1175   2.370       .  S
O1166      H1191   0.966       .  S
C1167      C1774   1.470       .  S
C1168      C1486   1.477       .  S
C1169      C1742   1.489       .  S
O1170      H1206   0.990       .  S
O1171      C1173   1.285       .  A
O1172      C1173   1.284       .  A
C1173      C1573   1.472       .  S
O1174     Zr1175   2.439       .  S
O1174      H1203   0.990       .  S
Zr1175     O1178   2.437       .  S
Zr1175     O1179   2.440       .  S
Zr1175     O1180   2.435       .  S
O1176      C1181   1.284       .  A
O1177      H1194   0.990       .  S
O1177      H1209   0.989       .  S
O1178      H1195   0.990       .  S
O1179      H1199   0.990       .  S
O1179      H1208   0.990       .  S
O1180      C1181   1.284       .  A
C1181      C1678   1.474       .  S
O1182      H1201   0.989       .  S
O1182      H1205   0.990       .  S
O1183      H1197   0.990       .  S
O1183      H1204   0.990       .  S
O1184      C1188   1.282       .  A
O1185      C1188   1.285       .  A
O1186      H1196   0.990       .  S
O1187      H1200   0.990       .  S
C1188      C1646   1.490       .  S
Zr1211     O1212   2.439       .  S
Zr1211     O1213   2.435       .  S
Zr1211     O1214   2.429       .  S
Zr1211     O1217   2.431       .  S
Zr1211     O1219   2.381   1_565  S
Zr1211     O1220   2.380       .  S
Zr1211     O1221   2.405       .  S
Zr1211     O1222   2.400       .  S
O1212      H1268   0.990       .  S
O1212      H1276   0.990       .  S
O1213      C1233   1.283       .  A
O1214      C1235   1.283       .  A
O1215     Zr1225   2.424       .  S
O1215      C1234   1.284       .  A
O1216     Zr1224   2.424   1_565  S
O1216      C1235   1.283       .  A
O1217      C1234   1.285       .  A
O1218     Zr1226   2.432   1_565  S
O1218      C1233   1.283       .  A
O1219     Zr1224   2.395       .  S
O1219     Zr1226   2.373       .  S
O1220     Zr1225   2.388       .  S
O1220     Zr1226   2.374   1_565  S
O1220      H1255   0.965       .  S
O1221     Zr1224   2.399   1_565  S
O1221     Zr1241   2.396       .  S
O1221      H1258   0.966       .  S
O1222     Zr1225   2.397       .  S
O1222     Zr1241   2.392       .  S
Zr1223     O1248   2.439       .  S
Zr1223     O1242   2.428       .  S
Zr1223     O1250   2.417       .  S
Zr1223     O1238   2.405       .  S
Zr1223     O1229   2.393       .  S
Zr1223     O1230   2.403       .  S
Zr1223     O1231   2.374       .  S
Zr1223     O1232   2.376   1_545  S
Zr1224     O1243   2.437       .  S
Zr1224     O1236   2.434       .  S
Zr1224     O1237   2.441       .  S
Zr1224     O1230   2.392       .  S
Zr1224     O1231   2.375       .  S
Zr1225     O1227   2.435       .  S
Zr1225     O1249   2.437       .  S
Zr1225     O1251   2.437       .  S
Zr1225     O1229   2.385   1_565  S
Zr1225     O1232   2.382       .  S
Zr1226     O1252   2.437       .  S
Zr1226     O1253   2.435       .  S
Zr1226     O1228   2.437       .  S
Zr1226     O1229   2.400       .  S
Zr1226     O1230   2.405       .  S
O1227      H1264   0.990       .  S
O1228      H1259   0.990       .  S
O1228      H1273   0.990       .  S
O1230      H1256   0.966       .  S
O1231     Zr1241   2.370   1_545  S
O1232     Zr1241   2.375       .  S
O1232      H1257   0.966       .  S
C1233      C1966   1.475       .  S
C1234      C1701   1.473       .  S
C1235      C1925   1.475       .  S
O1236      H1272   0.990       .  S
O1237      C1239   1.286       .  A
O1238      C1239   1.281       .  A
C1239      C1614   1.480       .  S
O1240     Zr1241   2.439       .  S
O1240      H1269   0.990       .  S
Zr1241     O1244   2.438       .  S
Zr1241     O1245   2.438       .  S
Zr1241     O1246   2.427       .  S
O1242      C1247   1.283       .  A
O1243      H1260   0.990       .  S
O1243      H1275   0.990   1_545  S
O1244      H1261   0.990       .  S
O1245      H1265   0.990       .  S
O1245      H1274   0.990       .  S
O1246      C1247   1.283   1_565  A
C1247      C1861   1.469       .  S
O1248      H1267   0.990       .  S
O1248      H1271   0.990       .  S
O1249      H1263   0.990       .  S
O1249      H1270   0.990       .  S
O1250      C1254   1.281       .  A
O1251      C1254   1.286   1_565  A
O1252      H1262   0.990       .  S
O1253      H1266   0.990       .  S
C1254      C1838   1.487       .  S
Zr1277     O1278   2.440   1_455  S
Zr1277     O1279   2.428       .  S
Zr1277     O1280   2.414       .  S
Zr1277     O1283   2.423   1_455  S
Zr1277     O1285   2.382       .  S
Zr1277     O1286   2.377       .  S
Zr1277     O1287   2.401       .  S
Zr1277     O1288   2.397   1_565  S
O1278      H1334   0.990       .  S
O1278      H1342   0.990       .  S
O1279      C1299   1.282       .  A
O1280      C1301   1.280       .  A
O1281     Zr1291   2.438   1_665  S
O1281      C1300   1.287       .  A
O1282     Zr1290   2.440       .  S
O1282      C1301   1.286       .  A
O1283      C1300   1.283       .  A
O1284     Zr1292   2.438       .  S
O1284      C1299   1.284       .  A
O1285     Zr1290   2.393       .  S
O1285     Zr1292   2.378       .  S
O1286     Zr1291   2.381   1_565  S
O1286     Zr1292   2.366       .  S
O1286      H1321   0.966       .  S
O1287     Zr1290   2.398       .  S
O1287     Zr1307   2.393   1_565  S
O1287      H1324   0.966       .  S
O1288     Zr1291   2.390       .  S
O1288     Zr1307   2.392       .  S
Zr1289     O1314   2.440       .  S
Zr1289     O1308   2.448       .  S
Zr1289     O1316   2.430       .  S
Zr1289     O1304   2.439       .  S
Zr1289     O1295   2.407       .  S
Zr1289     O1296   2.410   1_545  S
Zr1289     O1297   2.380       .  S
Zr1289     O1298   2.382       .  S
Zr1290     O1309   2.436       .  S
Zr1290     O1302   2.436       .  S
Zr1290     O1303   2.436       .  S
Zr1290     O1296   2.399       .  S
Zr1290     O1297   2.394   1_565  S
Zr1291     O1293   2.434   1_455  S
Zr1291     O1315   2.436       .  S
Zr1291     O1317   2.430       .  S
Zr1291     O1295   2.394       .  S
Zr1291     O1298   2.392       .  S
Zr1292     O1318   2.435       .  S
Zr1292     O1319   2.435       .  S
Zr1292     O1294   2.436       .  S
Zr1292     O1295   2.399   1_565  S
Zr1292     O1296   2.401       .  S
O1293      H1330   0.990       .  S
O1294      H1325   0.990       .  S
O1294      H1339   0.990       .  S
O1296      H1322   0.966       .  S
O1297     Zr1307   2.382       .  S
O1298     Zr1307   2.374       .  S
O1298      H1323   0.966       .  S
C1299      C2117   1.474       .  S
C1300      C1893   1.477       .  S
C1301      C2094   1.479       .  S
O1302      H1338   0.990       .  S
O1303      C1305   1.285   1_565  A
O1304      C1305   1.285       .  A
C1305      C1806   1.481       .  S
O1306     Zr1307   2.438   1_655  S
O1306      H1335   0.990       .  S
Zr1307     O1310   2.436       .  S
Zr1307     O1311   2.439   1_455  S
Zr1307     O1312   2.416       .  S
O1308      C1313   1.286       .  A
O1309      H1326   0.990       .  S
O1309      H1341   0.990       .  S
O1310      H1327   0.990       .  S
O1311      H1331   0.990   1_655  S
O1311      H1340   0.990       .  S
O1312      C1313   1.280       .  A
C1313      C2030   1.474       .  S
O1314      H1333   0.990       .  S
O1314      H1337   0.990       .  S
O1315      H1329   0.990       .  S
O1315      H1336   0.990       .  S
O1316      C1320   1.284       .  A
O1317      C1320   1.285       .  A
O1318      H1328   0.990       .  S
O1319      H1332   0.990       .  S
C1320      C1989   1.491       .  S
Zr1343     O1344   2.439       .  S
Zr1343     O1345   2.426       .  S
Zr1343     O1346   2.426       .  S
Zr1343     O1349   2.415   1_655  S
Zr1343     O1351   2.375       .  S
Zr1343     O1352   2.379   1_655  S
Zr1343     O1353   2.400   1_655  S
Zr1343     O1354   2.400   1_655  S
O1344      H1400   0.990       .  S
O1344      H1408   0.990       .  S
O1345      C1365   1.282       .  A
O1346      C1367   1.282       .  A
O1347     Zr1357   2.427       .  S
O1347      C1366   1.284       .  A
O1348     Zr1356   2.432   1_655  S
O1348      C1367   1.284       .  A
O1349      C1366   1.281       .  A
O1350     Zr1358   2.423   1_655  S
O1350      C1365   1.282       .  A
O1351     Zr1356   2.391   1_655  S
O1351     Zr1358   2.377   1_655  S
O1352     Zr1357   2.384       .  S
O1352     Zr1358   2.370       .  S
O1352      H1387   0.965       .  S
O1353     Zr1356   2.400       .  S
O1353     Zr1373   2.397       .  S
O1353      H1390   0.966       .  S
O1354     Zr1357   2.392       .  S
O1354     Zr1373   2.394       .  S
Zr1355     O1380   2.445       .  S
Zr1355     O1374   2.444       .  S
Zr1355     O1382   2.431       .  S
Zr1355     O1370   2.431       .  S
Zr1355     O1361   2.400       .  S
Zr1355     O1362   2.403       .  S
Zr1355     O1363   2.377       .  S
Zr1355     O1364   2.383       .  S
Zr1356     O1375   2.437       .  S
Zr1356     O1368   2.434   1_455  S
Zr1356     O1369   2.428       .  S
Zr1356     O1362   2.396       .  S
Zr1356     O1363   2.390       .  S
Zr1357     O1359   2.434       .  S
Zr1357     O1381   2.440       .  S
Zr1357     O1383   2.426       .  S
Zr1357     O1361   2.389       .  S
Zr1357     O1364   2.390       .  S
Zr1358     O1384   2.436       .  S
Zr1358     O1385   2.436       .  S
Zr1358     O1360   2.437   1_455  S
Zr1358     O1361   2.396       .  S
Zr1358     O1362   2.398       .  S
O1359      H1396   0.990       .  S
O1360      H1391   0.990       .  S
O1360      H1405   0.990       .  S
O1362      H1388   0.966       .  S
O1363     Zr1373   2.374       .  S
O1364     Zr1373   2.378       .  S
O1364      H1389   0.966       .  S
C1365      C1454   1.470       .  S
C1366      C2158   1.469       .  S
C1367      C1422   1.480       .  S
O1368      H1404   0.990       .  S
O1369      C1371   1.284       .  A
O1370      C1371   1.285       .  A
C1371      C2062   1.482       .  S
O1372     Zr1373   2.440       .  S
O1372      H1401   0.990       .  S
Zr1373     O1376   2.437       .  S
Zr1373     O1377   2.440       .  S
Zr1373     O1378   2.425       .  S
O1374      C1379   1.286       .  A
O1375      H1392   0.990   1_455  S
O1375      H1407   0.990       .  S
O1376      H1393   0.990       .  S
O1377      H1397   0.990       .  S
O1377      H1406   0.990       .  S
O1378      C1379   1.284       .  A
C1379      C1541   1.505       .  S
O1380      H1399   0.991       .  S
O1380      H1403   0.989       .  S
O1381      H1395   0.990       .  S
O1381      H1402   0.990       .  S
O1382      C1386   1.284       .  A
O1383      C1386   1.284       .  A
O1384      H1394   0.990   1_455  S
O1385      H1398   0.990       .  S
C1386      C1518   1.487       .  S
C1409      C1410   1.403       .  A
C1409      C1414   1.403       .  A
C1409      H1419   1.084       .  S
C1410      C1415   1.479       .  S
C1410      C1411   1.411       .  A
C1411      C1412   1.400       .  A
C1411      C1416   1.507       .  S
C1412      C1413   1.402       .  A
C1412      H1417   1.084       .  S
C1413      C1414   1.412       .  A
C1414      C1418   1.505       .  S
C1415      C1420   1.410       .  A
C1415      C1424   1.400       .  A
C1416      H1432   1.109       .  S
C1416      H1433   1.110       .  S
C1416      H1434   1.111       .  S
C1418      H1430   1.110       .  S
C1420      C1421   1.404       .  A
C1420      C1425   1.507       .  S
C1421      C1422   1.406       .  A
C1421      H1426   1.084       .  S
C1422      C1423   1.417       .  A
C1423      C1424   1.401       .  A
C1423      C1427   1.508       .  S
C1424      H1428   1.084       .  S
C1425      H1435   1.111       .  S
C1425      H1436   1.110       .  S
C1425      H1437   1.111       .  S
C1427      H1438   1.108       .  S
C1427      H1439   1.110       .  S
C1427      H1440   1.111       .  S
C1441      C1442   1.401       .  A
C1441      C1446   1.402       .  A
C1441      H1451   1.084       .  S
C1442      C1447   1.477       .  S
C1442      C1443   1.411       .  A
C1443      C1444   1.403       .  A
C1443      C1448   1.506       .  S
C1444      C1445   1.401       .  A
C1445      C1446   1.410       .  A
C1446      C1450   1.504       .  S
C1447      C1452   1.409       .  A
C1447      C1456   1.401       .  A
C1448      H1464   1.110       .  S
C1448      H1465   1.110       .  S
C1450      H1461   1.109       .  S
C1450      H1462   1.111       .  S
C1450      H1463   1.108       .  S
C1452      C1453   1.403       .  A
C1452      C1457   1.505       .  S
C1453      C1454   1.403       .  A
C1453      H1458   1.082       .  S
C1454      C1455   1.416       .  A
C1455      C1456   1.400       .  A
C1455      C1459   1.509       .  S
C1456      H1460   1.085       .  S
C1457      H1467   1.111       .  S
C1457      H1468   1.110       .  S
C1457      H1469   1.110       .  S
C1459      H1470   1.111       .  S
C1459      H1471   1.107       .  S
C1459      H1472   1.110       .  S
C1473      C1474   1.400       .  A
C1473      C1478   1.401       .  A
C1473      H1483   1.085       .  S
C1474      C1479   1.476       .  S
C1474      C1475   1.409       .  A
C1475      C1476   1.401       .  A
C1475      C1480   1.506       .  S
C1476      C1477   1.404       .  A
C1476      H1481   1.082       .  S
C1477      C1478   1.416       .  A
C1478      C1482   1.507       .  S
C1479      C1484   1.411       .  A
C1479      C1488   1.398       .  A
C1480      H1496   1.110       .  S
C1480      H1497   1.110       .  S
C1480      H1498   1.111       .  S
C1482      H1493   1.110       .  S
C1482      H1494   1.111       .  S
C1482      H1495   1.108       .  S
C1484      C1485   1.400       .  A
C1484      C1489   1.508       .  S
C1485      C1486   1.403       .  A
C1485      H1490   1.084       .  S
C1486      C1487   1.419       .  A
C1487      C1488   1.403       .  A
C1487      C1491   1.507       .  S
C1488      H1492   1.084       .  S
C1489      H1499   1.111       .  S
C1489      H1500   1.110       .  S
C1489      H1501   1.110       .  S
C1491      H1502   1.110       .  S
C1491      H1503   1.106       .  S
C1491      H1504   1.111       .  S
C1505      C1506   1.402       .  A
C1505      C1510   1.400       .  A
C1505      H1515   1.085       .  S
C1506      C1511   1.475       .  S
C1506      C1507   1.410       .  A
C1507      C1508   1.400       .  A
C1507      C1512   1.505       .  S
C1508      C1509   1.399       .  A
C1508      H1513   1.084       .  S
C1509      C1510   1.412       .  A
C1511      C1516   1.406       .  A
C1511      C1520   1.399       .  A
C1512      H1528   1.110       .  S
C1512      H1529   1.110       .  S
C1512      H1530   1.111       .  S
C1514      H1525   1.106       .  S
C1514      H1526   1.110       .  S
C1514      H1527   1.108       .  S
C1516      C1517   1.403       .  A
C1516      C1521   1.507       .  S
C1517      C1518   1.410       .  A
C1517      H1522   1.084       .  S
C1518      C1519   1.419       .  A
C1519      C1520   1.402       .  A
C1519      C1523   1.505       .  S
C1520      H1524   1.084       .  S
C1521      H1531   1.111       .  S
C1521      H1532   1.110       .  S
C1521      H1533   1.110       .  S
C1523      H1534   1.110       .  S
C1523      H1535   1.110       .  S
C1523      H1536   1.111       .  S
C1537      C1538   1.399       .  A
C1537      C1542   1.409       .  A
C1537      H1547   1.084       .  S
C1538      C1543   1.485       .  S
C1538      C1539   1.409       .  A
C1539      C1540   1.402       .  A
C1539      C1544   1.508       .  S
C1540      C1541   1.412       .  A
C1540      H1545   1.083       .  S
C1541      C1542   1.425       .  A
C1542      C1546   1.506       .  S
C1543      C1548   1.412       .  A
C1543      C1552   1.401       .  A
C1544      H1560   1.111       .  S
C1544      H1561   1.107       .  S
C1544      H1562   1.111       .  S
C1546      H1557   1.111       .  S
C1546      H1558   1.110       .  S
C1546      H1559   1.105       .  S
C1548      C1549   1.405       .  A
C1548      C1553   1.507       .  S
C1549      C1550   1.404       .  A
C1549      H1554   1.081       .  S
C1550      C1551   1.417       .  A
C1551      C1552   1.404       .  A
C1551      C1555   1.505       .  S
C1552      H1556   1.084       .  S
C1553      H1563   1.111       .  S
C1553      H1564   1.110       .  S
C1553      H1565   1.108       .  S
C1555      H1566   1.110       .  S
C1555      H1567   1.108       .  S
C1569      C1570   1.399       .  A
C1569      C1574   1.404       .  A
C1569      H1579   1.084       .  S
C1570      C1575   1.476       .  S
C1570      C1571   1.413       .  A
C1571      C1572   1.400       .  A
C1571      C1576   1.508       .  S
C1572      C1573   1.400       .  A
C1572      H1577   1.085       .  S
C1573      C1574   1.416       .  A
C1574      C1578   1.506       .  S
C1575      C1580   1.410       .  A
C1575      C1584   1.399       .  A
C1576      H1592   1.110       .  S
C1576      H1593   1.110       .  S
C1576      H1594   1.111       .  S
C1578      H1589   1.111       .  S
C1578      H1590   1.111       .  S
C1578      H1591   1.108       .  S
C1580      C1581   1.405       .  A
C1580      C1585   1.505       .  S
C1581      C1582   1.403       .  A
C1581      H1586   1.084       .  S
C1582      C1583   1.413       .  A
C1583      C1584   1.399       .  A
C1583      C1587   1.509       .  S
C1584      H1588   1.084       .  S
C1585      H1595   1.111       .  S
C1585      H1596   1.110       .  S
C1585      H1597   1.110       .  S
C1587      H1598   1.111       .  S
C1587      H1599   1.109       .  S
C1587      H1600   1.109       .  S
C1601      C1602   1.400       .  A
C1601      C1606   1.400       .  A
C1601      H1611   1.085       .  S
C1602      C1607   1.475       .  S
C1602      C1603   1.410       .  A
C1603      C1604   1.402       .  A
C1603      C1608   1.507       .  S
C1604      C1605   1.403       .  A
C1604      H1609   1.084       .  S
C1605      C1606   1.414       .  A
C1606      C1610   1.506       .  S
C1607      C1612   1.406       .  A
C1607      C1616   1.401       .  A
C1608      H1624   1.110       .  S
C1608      H1625   1.110       .  S
C1608      H1626   1.111       .  S
C1610      H1621   1.111       .  S
C1610      H1622   1.110       .  S
C1610      H1623   1.109       .  S
C1612      C1613   1.400       .  A
C1612      C1617   1.506       .  S
C1613      C1614   1.408       .  A
C1613      H1618   1.084       .  S
C1614      C1615   1.417       .  A
C1615      C1616   1.403       .  A
C1615      C1619   1.508       .  S
C1616      H1620   1.084       .  S
C1617      H1627   1.111       .  S
C1617      H1628   1.110       .  S
C1617      H1629   1.110       .  S
C1619      H1630   1.111       .  S
C1619      H1631   1.110       .  S
C1619      H1632   1.109       .  S
C1633      C1634   1.398       .  A
C1633      C1638   1.399       .  A
C1633      H1643   1.085       .  S
C1634      C1639   1.477       .  S
C1634      C1635   1.411       .  A
C1635      C1636   1.405       .  A
C1635      C1640   1.506       .  S
C1636      C1637   1.404       .  A
C1636      H1641   1.084   1_556  S
C1637      C1638   1.417       .  A
C1639      C1644   1.407       .  A
C1639      C1648   1.398       .  A
C1640      H1656   1.110       .  S
C1640      H1657   1.110       .  S
C1640      H1658   1.111       .  S
C1642      H1653   1.111       .  S
C1642      H1655   1.107       .  S
C1644      C1645   1.403       .  A
C1644      C1649   1.507       .  S
C1645      C1646   1.410       .  A
C1645      H1650   1.084       .  S
C1646      C1647   1.423       .  A
C1647      C1648   1.403       .  A
C1647      C1651   1.509       .  S
C1648      H1652   1.084       .  S
C1649      H1659   1.111       .  S
C1649      H1660   1.110       .  S
C1649      H1661   1.110       .  S
C1651      H1662   1.111       .  S
C1651      H1663   1.111       .  S
C1651      H1664   1.107       .  S
C1665      C1666   1.403       .  A
C1665      C1670   1.402       .  A
C1665      H1675   1.084       .  S
C1666      C1671   1.484       .  S
C1666      C1667   1.412       .  A
C1667      C1668   1.404       .  A
C1667      C1672   1.506       .  S
C1668      C1669   1.403       .  A
C1668      H1673   1.084       .  S
C1669      C1670   1.412       .  A
C1670      C1674   1.503       .  S
C1671      C1676   1.412       .  A
C1671      C1680   1.402       .  A
C1672      H1688   1.109       .  S
C1672      H1689   1.110       .  S
C1672      H1690   1.111       .  S
C1674      H1685   1.110       .  S
C1674      H1686   1.110       .  S
C1674      H1687   1.107       .  S
C1676      C1677   1.406       .  A
C1676      C1681   1.506       .  S
C1677      C1678   1.404       .  A
C1677      H1682   1.084       .  S
C1678      C1679   1.414       .  A
C1679      C1680   1.402       .  A
C1679      C1683   1.508       .  S
C1680      H1684   1.085       .  S
C1681      H1691   1.111       .  S
C1681      H1692   1.109       .  S
C1681      H1693   1.110       .  S
C1683      H1694   1.111       .  S
C1683      H1695   1.108       .  S
C1683      H1696   1.110       .  S
C1697      C1698   1.401       .  A
C1697      C1702   1.400       .  A
C1697      H1707   1.084       .  S
C1698      C1703   1.477       .  S
C1698      C1699   1.409       .  A
C1699      C1700   1.405       .  A
C1699      C1704   1.505       .  S
C1700      C1701   1.405       .  A
C1700      H1705   1.084       .  S
C1701      C1702   1.413       .  A
C1702      C1706   1.508       .  S
C1703      C1708   1.410       .  A
C1703      C1712   1.400       .  A
C1704      H1720   1.110       .  S
C1704      H1721   1.110       .  S
C1704      H1722   1.111       .  S
C1706      H1717   1.111       .  S
C1706      H1718   1.109       .  S
C1706      H1719   1.110       .  S
C1708      C1709   1.403       .  A
C1708      C1713   1.506       .  S
C1709      C1710   1.402       .  A
C1709      H1714   1.083       .  S
C1710      C1711   1.414       .  A
C1711      C1712   1.401       .  A
C1712      H1716   1.085       .  S
C1713      H1723   1.111       .  S
C1713      H1724   1.110       .  S
C1713      H1725   1.110       .  S
C1715      H1726   1.110       .  S
C1715      H1727   1.106       .  S
C1715      H1728   1.111       .  S
C1729      C1730   1.400       .  A
C1729      C1734   1.401       .  A
C1729      H1739   1.085       .  S
C1730      C1735   1.483       .  S
C1730      C1731   1.412       .  A
C1731      C1732   1.407       .  A
C1731      C1736   1.505       .  S
C1732      C1733   1.403       .  A
C1732      H1737   1.084       .  S
C1733      C1734   1.414       .  A
C1734      C1738   1.508       .  S
C1735      C1740   1.411       .  A
C1735      C1744   1.400       .  A
C1736      H1752   1.110       .  S
C1736      H1753   1.110       .  S
C1736      H1754   1.111       .  S
C1738      H1749   1.110       .  S
C1738      H1750   1.111       .  S
C1738      H1751   1.108       .  S
C1740      C1741   1.405       .  A
C1740      C1745   1.507       .  S
C1741      C1742   1.408       .  A
C1741      H1746   1.084       .  S
C1742      C1743   1.419       .  A
C1743      C1744   1.406       .  A
C1743      C1747   1.506       .  S
C1744      H1748   1.084       .  S
C1745      H1755   1.111       .  S
C1745      H1756   1.110       .  S
C1745      H1757   1.110       .  S
C1747      H1758   1.109       .  S
C1747      H1759   1.111       .  S
C1747      H1760   1.111       .  S
C1761      C1762   1.401       .  A
C1761      C1766   1.403       .  A
C1761      H1771   1.084       .  S
C1762      C1767   1.478       .  S
C1762      C1763   1.412       .  A
C1763      C1764   1.403       .  A
C1763      C1768   1.507       .  S
C1764      C1765   1.400       .  A
C1764      H1769   1.083       .  S
C1765      C1766   1.413       .  A
C1766      C1770   1.505       .  S
C1767      C1772   1.411       .  A
C1767      C1776   1.399       .  A
C1768      H1784   1.110       .  S
C1768      H1785   1.110       .  S
C1768      H1786   1.111       .  S
C1770      H1781   1.110       .  S
C1770      H1782   1.110       .  S
C1770      H1783   1.107       .  S
C1772      C1773   1.407       .  A
C1772      C1777   1.505       .  S
C1773      C1774   1.404       .  A
C1773      H1778   1.084       .  S
C1774      C1775   1.415       .  A
C1775      C1776   1.397       .  A
C1775      C1779   1.509       .  S
C1776      H1780   1.085       .  S
C1777      H1787   1.111       .  S
C1777      H1788   1.110       .  S
C1777      H1789   1.110       .  S
C1779      H1790   1.110       .  S
C1779      H1791   1.107       .  S
C1779      H1792   1.111       .  S
C1793      C1794   1.401   1_565  A
C1793      C1798   1.402   1_565  A
C1793      H1803   1.085       .  S
C1794      C1799   1.482       .  S
C1794      C1795   1.410       .  A
C1795      C1796   1.404       .  A
C1795      C1800   1.505       .  S
C1796      C1797   1.402       .  A
C1796      H1801   1.084       .  S
C1797      C1798   1.414       .  A
C1798      C1802   1.505   1_545  S
C1799      C1804   1.412       .  A
C1799      C1808   1.400       .  A
C1800      H1816   1.110       .  S
C1800      H1817   1.110       .  S
C1800      H1818   1.111       .  S
C1802      H1813   1.110       .  S
C1802      H1814   1.110       .  S
C1802      H1815   1.103       .  S
C1804      C1805   1.402       .  A
C1804      C1809   1.508       .  S
C1805      C1806   1.403       .  A
C1805      H1810   1.084       .  S
C1806      C1807   1.420       .  A
C1807      C1808   1.407       .  A
C1807      C1811   1.507       .  S
C1808      H1812   1.084       .  S
C1809      H1819   1.111       .  S
C1809      H1820   1.110       .  S
C1809      H1821   1.110       .  S
C1811      H1822   1.111   1_545  S
C1811      H1823   1.106       .  S
C1811      H1824   1.110       .  S
C1825      C1826   1.398       .  A
C1825      C1830   1.398       .  A
C1825      H1835   1.085   1_545  S
C1826      C1831   1.477       .  S
C1826      C1827   1.411       .  A
C1827      C1828   1.406       .  A
C1827      C1832   1.506       .  S
C1828      C1829   1.404       .  A
C1828      H1833   1.084   1_556  S
C1829      C1830   1.416       .  A
C1831      C1836   1.409       .  A
C1831      C1840   1.398       .  A
C1832      H1848   1.110       .  S
C1832      H1849   1.109       .  S
C1832      H1850   1.111       .  S
C1834      H1845   1.111       .  S
C1834      H1847   1.110       .  S
C1836      C1837   1.404       .  A
C1836      C1841   1.507   1_545  S
C1837      C1838   1.408       .  A
C1837      H1842   1.084   1_545  S
C1838      C1839   1.422       .  A
C1839      C1840   1.402       .  A
C1839      C1843   1.510       .  S
C1840      H1844   1.084       .  S
C1841      H1851   1.111       .  S
C1841      H1852   1.110       .  S
C1841      H1853   1.109   1_565  S
C1843      H1854   1.111       .  S
C1843      H1855   1.111       .  S
C1843      H1856   1.109       .  S
C1857      C1858   1.402       .  A
C1857      C1862   1.403       .  A
C1857      H1867   1.085       .  S
C1858      C1863   1.482       .  S
C1858      C1859   1.413   1_545  A
C1859      C1860   1.403       .  A
C1859      C1864   1.507       .  S
C1860      C1861   1.401   1_565  A
C1860      H1865   1.084       .  S
C1861      C1862   1.415       .  A
C1862      C1866   1.509       .  S
C1863      C1868   1.411       .  A
C1863      C1872   1.401   1_545  A
C1864      H1880   1.109       .  S
C1864      H1881   1.110       .  S
C1864      H1882   1.111       .  S
C1866      H1877   1.110       .  S
C1866      H1878   1.111       .  S
C1866      H1879   1.107       .  S
C1868      C1869   1.405       .  A
C1868      C1873   1.506       .  S
C1869      C1870   1.404       .  A
C1869      H1874   1.083       .  S
C1870      C1871   1.414       .  A
C1871      C1872   1.400   1_545  A
C1871      C1875   1.504   1_545  S
C1872      H1876   1.085       .  S
C1873      H1883   1.111       .  S
C1873      H1884   1.109       .  S
C1873      H1885   1.110       .  S
C1875      H1886   1.110       .  S
C1875      H1887   1.104       .  S
C1875      H1888   1.110       .  S
C1889      C1890   1.400       .  A
C1889      C1894   1.405       .  A
C1889      H1899   1.084       .  S
C1890      C1895   1.479       .  S
C1890      C1891   1.412       .  A
C1891      C1892   1.401       .  A
C1891      C1896   1.508       .  S
C1892      C1893   1.403       .  A
C1892      H1897   1.084       .  S
C1893      C1894   1.419       .  A
C1894      C1898   1.507       .  S
C1895      C1900   1.411       .  A
C1895      C1904   1.400       .  A
C1896      H1912   1.110       .  S
C1896      H1913   1.110       .  S
C1896      H1914   1.111       .  S
C1898      H1909   1.110       .  S
C1898      H1910   1.111       .  S
C1898      H1911   1.106       .  S
C1900      C1901   1.403       .  A
C1900      C1905   1.505       .  S
C1901      C1902   1.404       .  A
C1901      H1906   1.083       .  S
C1902      C1903   1.415       .  A
C1903      C1904   1.399       .  A
C1903      C1907   1.507       .  S
C1904      H1908   1.085       .  S
C1905      H1915   1.111   1_565  S
C1905      H1916   1.110       .  S
C1905      H1917   1.110   1_565  S
C1907      H1918   1.110       .  S
C1907      H1919   1.108       .  S
C1921      C1922   1.399       .  A
C1921      C1926   1.400       .  A
C1921      H1931   1.084       .  S
C1922      C1927   1.473       .  S
C1922      C1923   1.408       .  A
C1923      C1924   1.403       .  A
C1923      C1928   1.506       .  S
C1924      C1925   1.406       .  A
C1924      H1929   1.084       .  S
C1925      C1926   1.415       .  A
C1926      C1930   1.507       .  S
C1927      C1932   1.409       .  A
C1927      C1936   1.401       .  A
C1928      H1944   1.110       .  S
C1928      H1945   1.110       .  S
C1928      H1946   1.111       .  S
C1930      H1941   1.111       .  S
C1930      H1942   1.109       .  S
C1930      H1943   1.110       .  S
C1932      C1933   1.400       .  A
C1932      C1937   1.506   1_565  S
C1933      C1934   1.401       .  A
C1933      H1938   1.084       .  S
C1934      C1935   1.412       .  A
C1935      C1936   1.401       .  A
C1935      C1939   1.506       .  S
C1936      H1940   1.085       .  S
C1937      H1947   1.111       .  S
C1937      H1948   1.110       .  S
C1937      H1949   1.110       .  S
C1939      H1950   1.110       .  S
C1953      C1954   1.402       .  A
C1953      C1958   1.403       .  A
C1953      H1963   1.084       .  S
C1954      C1959   1.483       .  S
C1954      C1955   1.413       .  A
C1955      C1956   1.402       .  A
C1955      C1960   1.506   1_565  S
C1956      C1957   1.402       .  A
C1956      H1961   1.083       .  S
C1957      C1958   1.415       .  A
C1958      C1962   1.506       .  S
C1959      C1964   1.412       .  A
C1959      C1968   1.401       .  A
C1960      H1976   1.109       .  S
C1960      H1977   1.110       .  S
C1960      H1978   1.111       .  S
C1962      H1973   1.110       .  S
C1962      H1974   1.111       .  S
C1962      H1975   1.106       .  S
C1964      C1965   1.408       .  A
C1964      C1969   1.506       .  S
C1965      C1966   1.405       .  A
C1965      H1970   1.082       .  S
C1966      C1967   1.415       .  A
C1967      C1968   1.399       .  A
C1967      C1971   1.508       .  S
C1968      H1972   1.085       .  S
C1969      H1979   1.111       .  S
C1969      H1980   1.110       .  S
C1969      H1981   1.110       .  S
C1971      H1982   1.111       .  S
C1971      H1983   1.106       .  S
C1971      H1984   1.110       .  S
C1985      C1986   1.401       .  A
C1985      C1990   1.405       .  A
C1985      H1995   1.084       .  S
C1986      C1991   1.481       .  S
C1986      C1987   1.408       .  A
C1987      C1988   1.404       .  A
C1987      C1992   1.508       .  S
C1988      C1989   1.409       .  A
C1988      H1993   1.084       .  S
C1989      C1990   1.422       .  A
C1990      C1994   1.509       .  S
C1991      C1996   1.412       .  A
C1991      C2000   1.399       .  A
C1992      H2008   1.111       .  S
C1992      H2009   1.108       .  S
C1992      H2010   1.111       .  S
C1994      H2005   1.111       .  S
C1994      H2006   1.111       .  S
C1994      H2007   1.109       .  S
C1996      C1997   1.406       .  A
C1996      C2001   1.506       .  S
C1997      C1998   1.404       .  A
C1998      C1999   1.417       .  A
C1999      C2000   1.401       .  A
C1999      C2003   1.509       .  S
C2000      H2004   1.084       .  S
C2001      H2012   1.110       .  S
C2001      H2013   1.108       .  S
C2003      H2014   1.107       .  S
C2003      H2015   1.109       .  S
C2003      H2016   1.111       .  S
C2017      C2018   1.402       .  A
C2017      C2022   1.403       .  A
C2017      H2027   1.084       .  S
C2018      C2023   1.485       .  S
C2018      C2019   1.411       .  A
C2019      C2020   1.405       .  A
C2019      C2024   1.505       .  S
C2020      C2021   1.403       .  A
C2020      H2025   1.083       .  S
C2021      C2022   1.414       .  A
C2022      C2026   1.504       .  S
C2023      C2028   1.411       .  A
C2023      C2032   1.403       .  A
C2024      H2040   1.110       .  S
C2024      H2041   1.110       .  S
C2024      H2042   1.111       .  S
C2026      H2037   1.110       .  S
C2028      C2029   1.405       .  A
C2028      C2033   1.506       .  S
C2029      C2030   1.403       .  A
C2029      H2034   1.084       .  S
C2030      C2031   1.415       .  A
C2031      C2032   1.405       .  A
C2031      C2035   1.508       .  S
C2032      H2036   1.085       .  S
C2033      H2043   1.111       .  S
C2033      H2044   1.110       .  S
C2033      H2045   1.110       .  S
C2035      H2046   1.110       .  S
C2035      H2047   1.109       .  S
C2035      H2048   1.111       .  S
C2049      C2050   1.400       .  A
C2049      C2054   1.401       .  A
C2049      H2059   1.084       .  S
C2050      C2055   1.477       .  S
C2050      C2051   1.411       .  A
C2051      C2052   1.403       .  A
C2051      C2056   1.506       .  S
C2052      C2053   1.402       .  A
C2052      H2057   1.084       .  S
C2053      C2054   1.413       .  A
C2054      C2058   1.508       .  S
C2055      C2060   1.407       .  A
C2055      C2064   1.401       .  A
C2056      H2072   1.110       .  S
C2056      H2073   1.110       .  S
C2056      H2074   1.111       .  S
C2058      H2069   1.111       .  S
C2058      H2070   1.108       .  S
C2058      H2071   1.110       .  S
C2060      C2061   1.403       .  A
C2060      C2065   1.506       .  S
C2061      C2062   1.408       .  A
C2061      H2066   1.083       .  S
C2062      C2063   1.417       .  A
C2063      C2064   1.402       .  A
C2063      C2067   1.508       .  S
C2064      H2068   1.084       .  S
C2065      H2075   1.111       .  S
C2065      H2076   1.110       .  S
C2065      H2077   1.110       .  S
C2067      H2078   1.111       .  S
C2067      H2079   1.110       .  S
C2067      H2080   1.109       .  S
C2081      C2082   1.402   1_655  A
C2081      C2086   1.402       .  A
C2081      H2091   1.084       .  S
C2082      C2087   1.475       .  S
C2082      C2083   1.410       .  A
C2083      C2084   1.400       .  A
C2083      C2088   1.507       .  S
C2084      C2085   1.401   1_455  A
C2084      H2089   1.084       .  S
C2085      C2086   1.411       .  A
C2086      C2090   1.506       .  S
C2087      C2092   1.409       .  A
C2087      C2096   1.398       .  A
C2088      H2104   1.110       .  S
C2088      H2105   1.109       .  S
C2088      H2106   1.111       .  S
C2090      H2101   1.110       .  S
C2090      H2102   1.110       .  S
C2090      H2103   1.108       .  S
C2092      C2093   1.405       .  A
C2092      C2097   1.507       .  S
C2093      C2094   1.406       .  A
C2093      H2098   1.084       .  S
C2094      C2095   1.418       .  A
C2095      C2096   1.400       .  A
C2095      C2099   1.509       .  S
C2096      H2100   1.084       .  S
C2097      H2107   1.111       .  S
C2097      H2108   1.110       .  S
C2097      H2109   1.109       .  S
C2099      H2110   1.109       .  S
C2099      H2111   1.110       .  S
C2099      H2112   1.111       .  S
C2113      C2114   1.402       .  A
C2113      C2118   1.403       .  A
C2113      H2123   1.084       .  S
C2114      C2119   1.484       .  S
C2114      C2115   1.412       .  A
C2115      C2116   1.407       .  A
C2115      C2120   1.505       .  S
C2116      C2117   1.402       .  A
C2116      H2121   1.083       .  S
C2117      C2118   1.412       .  A
C2118      C2122   1.508       .  S
C2119      C2124   1.410       .  A
C2119      C2128   1.402   1_455  A
C2120      H2136   1.110       .  S
C2120      H2137   1.110       .  S
C2120      H2138   1.111       .  S
C2122      H2133   1.111       .  S
C2122      H2134   1.111   1_455  S
C2122      H2135   1.110       .  S
C2124      C2125   1.401       .  A
C2124      C2129   1.507       .  S
C2125      C2126   1.404       .  A
C2125      H2130   1.083       .  S
C2126      C2127   1.416   1_455  A
C2127      C2128   1.407       .  A
C2128      H2132   1.084       .  S
C2129      H2139   1.111       .  S
C2129      H2140   1.110       .  S
C2129      H2141   1.110       .  S
C2131      H2142   1.110       .  S
C2131      H2143   1.107       .  S
C2131      H2144   1.110       .  S
C2145      C2146   1.400       .  A
C2145      C2150   1.400       .  A
C2145      H2155   1.085       .  S
C2146      C2151   1.472       .  S
C2146      C2147   1.408   1_455  A
C2147      C2148   1.401       .  A
C2147      C2152   1.506       .  S
C2148      C2149   1.403   1_655  A
C2149      C2150   1.414       .  A
C2150      C2154   1.507       .  S
C2151      C2156   1.407       .  A
C2151      C2160   1.401       .  A
C2152      H2168   1.110       .  S
C2152      H2169   1.110       .  S
C2154      H2165   1.110       .  S
C2154      H2166   1.111       .  S
C2154      H2167   1.106       .  S
C2156      C2157   1.402       .  A
C2156      C2161   1.505   1_455  S
C2157      C2158   1.405       .  A
C2157      H2162   1.084       .  S
C2158      C2159   1.412       .  A
C2159      C2160   1.399       .  A
C2159      C2163   1.508       .  S
C2160      H2164   1.085       .  S
C2161      H2171   1.111   1_655  S
C2161      H2172   1.110   1_655  S
C2161      H2173   1.110       .  S
C2163      H2174   1.111       .  S
C2163      H2175   1.109       .  S
C2163      H2176   1.111   1_455  S
