geometry optimzed in LAMMPS
_audit_creation_date              2020-12-01 
_audit_creation_method            'lammps2cif' 
_symmetry_space_group_name_H-M    'P1' 
_symmetry_Int_Tables_number       1 
_symmetry_cell_setting            triclinic 
loop_ 
_symmetry_equiv_pos_as_xyz 
  x,y,z 
_cell_length_a                    41.84904002 
_cell_length_b                    41.84185332426956 
_cell_length_c                    41.84809033537534 
_cell_angle_alpha                 90.00396131871405 
_cell_angle_beta                  90.00343857452569 
_cell_angle_gamma                 89.9980485242687 
loop_ 
_atom_site_label 
_atom_site_type_symbol 
_atom_site_fract_x 
_atom_site_fract_y 
_atom_site_fract_z 
_atom_site_charge 
C1          C  0.74267938  0.70632052  0.70282887     0.80100
N2          N  0.72982004  0.69422659  0.73011617    -0.78200
C3          C  0.70272052  0.70716202  0.74252522     0.82500
N4          N  0.68825588  0.73188463  0.72725076    -0.78200
C5          C  0.70126602  0.74433574  0.70026213     0.82600
N6          N  0.72803504  0.73102183  0.68768159    -0.79900
C7          C  0.25121260  0.74572484  0.25821485     0.80100
N8          N  0.26470144  0.73009804  0.23313935    -0.78200
C9          C  0.25225769  0.70198986  0.22268742     0.82500
N10         N  0.22674643  0.68898081  0.23803947    -0.78200
C11         C  0.21288849  0.70466196  0.26289968     0.82600
N12         N  0.22553865  0.73272594  0.27327495    -0.79900
C13         C  0.70939497  0.21650019  0.70625845     0.80100
N14         N  0.73572600  0.22979300  0.69273345    -0.78200
C15         C  0.74926436  0.25627662  0.70571292     0.82500
N16         N  0.73561698  0.27022408  0.73167070    -0.78200
C17         C  0.70916182  0.25718089  0.74527418     0.82600
N18         N  0.69575405  0.23063875  0.73214821    -0.79900
C19         C  0.25986590  0.25680554  0.74558246     0.80100
N20         N  0.27407246  0.23111452  0.73164647    -0.78200
C21         C  0.26150919  0.21811097  0.70465906     0.82500
N22         N  0.23511625  0.23140779  0.69119444    -0.78200
C23         C  0.22084780  0.25711933  0.70498821     0.82600
N24         N  0.23366320  0.27015261  0.73181115    -0.79900
C25         C  0.25612178  0.74426335  0.70223536     0.80100
N26         N  0.27127748  0.73280571  0.72863287    -0.78200
C27         C  0.25903420  0.70737383  0.74481054     0.82500
N28         N  0.23214723  0.69278307  0.73382698    -0.78200
C29         C  0.21709897  0.70393984  0.70728181     0.82600
N30         N  0.22945826  0.72933911  0.69129027    -0.79900
C31         C  0.74873413  0.25993577  0.25500156     0.80100
N32         N  0.73552807  0.23345726  0.26838881    -0.78200
C33         C  0.70884627  0.22012798  0.25554579     0.82500
N34         N  0.69451116  0.23425578  0.23005597    -0.78200
C35         C  0.70764250  0.26064935  0.21642626     0.82600
N36         N  0.73455150  0.27366312  0.22918493    -0.79900
O37         O  0.44752107  0.43889190  0.16860295    -0.73100
O38         O  0.50674328  0.51636435  0.16792943    -0.74100
O39         O  0.43808168  0.50746857  0.16888482    -0.62700
O40         O  0.51575701  0.44816520  0.16752236    -0.71100
O41         O  0.51576434  0.45157080  0.11460054    -0.70600
O42         O  0.43678625  0.50429777  0.11599325    -0.61900
O43         O  0.50287180  0.51712441  0.11505582    -0.74400
O44         O  0.45006766  0.43817640  0.11563921    -0.73200
Cu45       Cu  0.47697247  0.47774324  0.17032718     1.04600
Cu46       Cu  0.47624354  0.47781890  0.11370609     1.04300
C47         C  0.44035918  0.42595158  0.14180849     0.93100
C48         C  0.51412578  0.52869957  0.14090957     0.92300
C49         C  0.42516406  0.51486130  0.14212117     0.84400
C50         C  0.52820814  0.44125262  0.14041891     0.90700
N51         N  0.29314563  0.28212872  0.14692683    -0.27400
N52         N  0.30860857  0.29912435  0.16882288    -0.35300
C53         C  0.29685422  0.29211634  0.19780105     0.00900
C54         C  0.27291101  0.26990699  0.19428319     0.06900
C55         C  0.27113053  0.26382679  0.16183910    -0.06200
H56         H  0.30553843  0.30217264  0.21998757     0.07600
H57         H  0.25541227  0.24705320  0.14999784     0.08800
Cu58       Cu  0.34614613  0.33089510  0.16185647     0.44200
Cu59       Cu  0.30301609  0.28275293  0.09773252     0.42000
Cu60       Cu  0.37896201  0.32138719  0.08731651     0.43900
N61         N  0.38411818  0.35935078  0.14746734    -0.34800
N62         N  0.39633585  0.35502439  0.11877203    -0.29100
C63         C  0.41874298  0.37722994  0.11330161    -0.05200
C64         C  0.42109797  0.39654589  0.13999115     0.07000
C65         C  0.39884167  0.38447319  0.16145410     0.00800
H66         H  0.43159088  0.37983754  0.09101752     0.08500
H67         H  0.39277429  0.39408056  0.18466850     0.07600
N68         N  0.35386495  0.30002750  0.05081758    -0.36300
N69         N  0.32519285  0.28701062  0.05301867    -0.28400
C70         C  0.31498153  0.27970249  0.02314808    -0.03700
C71         C  0.33864770  0.28869369  0.00153720     0.04900
C72         C  0.36278108  0.30119192  0.02020743     0.03000
H73         H  0.29174644  0.26985719  0.01752179     0.08100
H74         H  0.38470478  0.31222573  0.01211558     0.07000
N75         N  0.28532782  0.66683611  0.15013260    -0.27400
N76         N  0.29940804  0.64901642  0.17231681    -0.35300
C77         C  0.28955466  0.65888891  0.20131551     0.00900
C78         C  0.26857398  0.68402774  0.19732099     0.06900
C79         C  0.26648362  0.68856307  0.16468984    -0.06200
H80         H  0.29721857  0.64853580  0.22373463     0.07600
H81         H  0.25202381  0.70611002  0.15237171     0.08800
Cu82       Cu  0.33164612  0.61143556  0.16445737     0.44200
Cu83       Cu  0.29050372  0.66144122  0.10060814     0.42000
Cu84       Cu  0.33099242  0.58827005  0.08454959     0.43900
N85         N  0.36077554  0.57416378  0.14811232    -0.34800
N86         N  0.35923201  0.56559721  0.11781784    -0.29100
C87         C  0.38073018  0.54259496  0.11205762    -0.05200
C88         C  0.39693698  0.53599376  0.14004714     0.07000
C89         C  0.38364431  0.55646835  0.16266835     0.00800
H90         H  0.38518473  0.53234946  0.08873739     0.08500
H91         H  0.39082693  0.55912090  0.18735215     0.07600
N92         N  0.31480708  0.61852519  0.04932757    -0.36300
N93         N  0.30026357  0.64613342  0.05403559    -0.28400
C94         C  0.29590084  0.66050122  0.02533064    -0.03700
C95         C  0.30871265  0.64076366  0.00184653     0.04900
C96         C  0.32031919  0.61454894  0.01814162     0.03000
H97         H  0.28562583  0.68398630  0.02199497     0.08100
H98         H  0.33307170  0.59438229  0.00819637     0.07000
N99         N  0.67732992  0.29866429  0.14410728    -0.27400
N100        N  0.65800701  0.31104731  0.16601140    -0.35300
C101        C  0.66540018  0.29852304  0.19469455     0.00900
C102        C  0.69049759  0.27748265  0.19083342     0.06900
C103        C  0.69763095  0.27822985  0.15859008    -0.06200
H104        H  0.65389684  0.30498650  0.21693262     0.07600
H105        H  0.71642633  0.26516444  0.14656393     0.08800
Cu106      Cu  0.62339472  0.34626903  0.15843679     0.44200
Cu107      Cu  0.67705999  0.31021926  0.09535975     0.42000
Cu108      Cu  0.63221057  0.38177309  0.08314992     0.43900
N109        N  0.59444922  0.38424067  0.14401615    -0.34800
N110        N  0.59855636  0.39725224  0.11558716    -0.29100
C111        C  0.57635537  0.41984633  0.11089573    -0.05200
C112        C  0.55727353  0.42156925  0.13776802     0.07000
C113        C  0.56942716  0.39867670  0.15851867     0.00800
H114        H  0.57375714  0.43347010  0.08907098     0.08500
H115        H  0.56011635  0.39221685  0.18174390     0.07600
N116        N  0.65598476  0.35819200  0.04708262    -0.36300
N117        N  0.67171553  0.33101241  0.05019924    -0.28400
C118        C  0.68065167  0.32086897  0.02077450    -0.03700
C119        C  0.66984180  0.34297896  0.99841776     0.04900
C120        C  0.65457270  0.36622016  0.01621687     0.03000
H121        H  0.69287607  0.29860368  0.01594766     0.08100
H122        H  0.64170103  0.38680827  0.00735202     0.07000
N123        N  0.66401099  0.67067081  0.14847527    -0.27400
N124        N  0.64774167  0.65460099  0.17051325    -0.35300
C125        C  0.65749149  0.66415236  0.19963289     0.00900
C126        C  0.68074294  0.68716144  0.19579813     0.06900
C127        C  0.68438344  0.69074199  0.16324289    -0.06200
H128        H  0.64819939  0.65504941  0.22198010     0.07600
H129        H  0.70062626  0.70679523  0.15111345     0.08800
Cu130      Cu  0.61209869  0.62047259  0.16269996     0.44200
Cu131      Cu  0.65922621  0.66648056  0.09885658     0.42000
Cu132      Cu  0.59139642  0.61915898  0.08231141     0.43900
N133        N  0.57528732  0.59116533  0.14619074    -0.34800
N134        N  0.56773159  0.59180399  0.11560421    -0.29100
C135        C  0.54430071  0.57077497  0.10991246    -0.05200
C136        C  0.53636865  0.55590890  0.13828087     0.07000
C137        C  0.55654160  0.56937794  0.16102298     0.00800
H138        H  0.53443977  0.56592699  0.08650638     0.08500
H139        H  0.55805713  0.56323922  0.18608276     0.07600
N140        N  0.61956265  0.63882970  0.04715273    -0.36300
N141        N  0.64535530  0.65630903  0.05199479    -0.28400
C142        C  0.65869722  0.66317887  0.02326795    -0.03700
C143        C  0.64018393  0.64889645  0.99959818     0.04900
C144        C  0.61571659  0.63390292  0.01587634     0.03000
H145        H  0.68065923  0.67641159  0.01997268     0.08100
H146        H  0.59674425  0.61950623  0.00582846     0.07000
O147        O  0.44718817  0.51319844  0.85068984    -0.73100
O148        O  0.51748230  0.44985966  0.84789956    -0.74100
O149        O  0.51388645  0.51611976  0.84864562    -0.62700
O150        O  0.45081137  0.44601577  0.85045060    -0.71100
O151        O  0.44726020  0.44581921  0.79754426    -0.70600
O152        O  0.51380353  0.51750184  0.79563277    -0.61900
O153        O  0.51647579  0.44851869  0.79490862    -0.74400
O154        O  0.44500378  0.51505315  0.79773957    -0.73200
Cu155      Cu  0.48227047  0.48126945  0.85099257     1.04600
Cu156      Cu  0.48045390  0.48169672  0.79433598     1.04300
C157        C  0.43542029  0.52484430  0.82509684     0.93100
C158        C  0.52852072  0.43935239  0.82151430     0.92300
C159        C  0.52441395  0.52762667  0.82251387     0.84400
C160        C  0.43909147  0.43452026  0.82482368     0.90700
N161        N  0.29441785  0.28658937  0.81991736    -0.27400
N162        N  0.30744639  0.30616803  0.79858540    -0.35300
C163        C  0.29646030  0.29865136  0.76936577     0.00900
C164        C  0.27574515  0.27325278  0.77214950     0.06900
C165        C  0.27499466  0.26601485  0.80439733    -0.06200
H166        H  0.30363236  0.31046110  0.74750840     0.07600
H167        H  0.26156429  0.24704530  0.81572990     0.08800
Cu168      Cu  0.34132153  0.34178185  0.80672756     0.44200
Cu169      Cu  0.30365844  0.28684018  0.86933049     0.42000
Cu170      Cu  0.37173812  0.33602375  0.88313647     0.43900
N171        N  0.37835955  0.37149837  0.82149427    -0.34800
N172        N  0.38931865  0.36864813  0.85088587    -0.29100
C173        C  0.41234870  0.39027783  0.85584129    -0.05200
C174        C  0.41655655  0.40767649  0.82810788     0.07000
C175        C  0.39461798  0.39512597  0.80655945     0.00800
H176        H  0.42504606  0.39322365  0.87817535     0.08500
H177        H  0.39043033  0.40287907  0.78226544     0.07600
N178        N  0.35020607  0.30932894  0.91825116    -0.36300
N179        N  0.32411517  0.29192112  0.91484008    -0.28400
C180        C  0.31558157  0.28055755  0.94397195    -0.03700
C181        C  0.33783386  0.29132662  0.96629011     0.04900
C182        C  0.35926683  0.30928248  0.94883542     0.03000
H183        H  0.29473523  0.26598237  0.94859809     0.08100
H184        H  0.37944448  0.32271093  0.95780813     0.07000
N185        N  0.29236379  0.67474881  0.81869665    -0.27400
N186        N  0.31032074  0.66029683  0.79683243    -0.35300
C187        C  0.30173413  0.67079866  0.76767556     0.00900
C188        C  0.27729818  0.69265449  0.77102545     0.06900
C189        C  0.27171999  0.69445460  0.80358763    -0.06200
H190        H  0.31203881  0.66243800  0.74548286     0.07600
H191        H  0.25387126  0.70892804  0.81544415     0.08800
Cu192      Cu  0.34514359  0.62510586  0.80444805     0.44200
Cu193      Cu  0.29555979  0.66806485  0.86858042     0.42000
Cu194      Cu  0.36130585  0.61699106  0.88443997     0.43900
N195        N  0.37705686  0.59014668  0.82048886    -0.34800
N196        N  0.38239304  0.58786412  0.85142963    -0.29100
C197        C  0.40295827  0.56409210  0.85717638    -0.05200
C198        C  0.41151298  0.55048968  0.82840431     0.07000
C199        C  0.39467918  0.56761312  0.80535823     0.00800
H200        H  0.41135365  0.55743320  0.88071155     0.08500
H201        H  0.39527502  0.56405041  0.77976933     0.07600
N202        N  0.33471242  0.63767431  0.91970026    -0.36300
N203        N  0.30944076  0.65605391  0.91542367    -0.28400
C204        C  0.29645927  0.66225235  0.94449103    -0.03700
C205        C  0.31471523  0.64661128  0.96757573     0.04900
C206        C  0.33863942  0.63158669  0.95073932     0.03000
H207        H  0.27475454  0.67574004  0.94837454     0.08100
H208        H  0.35696265  0.61598780  0.96018027     0.07000
N209        N  0.67896619  0.29646590  0.81707678    -0.27400
N210        N  0.66025848  0.30922379  0.79474293    -0.35300
C211        C  0.66785081  0.29633899  0.76627312     0.00900
C212        C  0.69228203  0.27466649  0.77061194     0.06900
C213        C  0.69894371  0.27542911  0.80295096    -0.06200
H214        H  0.65673008  0.30279362  0.74383854     0.07600
H215        H  0.71713001  0.26183998  0.81532959     0.08800
Cu216      Cu  0.62518328  0.34472990  0.80020338     0.44200
Cu217      Cu  0.67877836  0.30709713  0.86631891     0.42000
Cu218      Cu  0.62557902  0.37027073  0.87779057     0.43900
N219        N  0.59338867  0.38041167  0.81511191    -0.34800
N220        N  0.59455923  0.38910669  0.84533382    -0.29100
C221        C  0.57222524  0.41109470  0.85124295    -0.05200
C222        C  0.55578685  0.41711223  0.82336520     0.07000
C223        C  0.56987068  0.39730944  0.80054837     0.00800
H224        H  0.56808933  0.42176544  0.87443415     0.08500
H225        H  0.56314811  0.39490918  0.77571041     0.07600
N226        N  0.65142948  0.35121655  0.91436017    -0.36300
N227        N  0.67117705  0.32679885  0.91189170    -0.28400
C228        C  0.68212522  0.31966770  0.94157344    -0.03700
C229        C  0.66843402  0.34111545  0.96315458     0.04900
C230        C  0.64930058  0.36056031  0.94474266     0.03000
H231        H  0.69837152  0.30032004  0.94706735     0.08100
H232        H  0.63387918  0.37966646  0.95281625     0.07000
N233        N  0.67047363  0.67416925  0.81662535    -0.27400
N234        N  0.65183365  0.66040896  0.79486272    -0.35300
C235        C  0.66068349  0.67039424  0.76565938     0.00900
C236        C  0.68606239  0.69106722  0.76884449     0.06900
C237        C  0.69180443  0.69297786  0.80134326    -0.06200
H238        H  0.64963611  0.66273072  0.74356850     0.07600
H239        H  0.70999798  0.70713038  0.81305643     0.08800
Cu240      Cu  0.61534332  0.62712335  0.80198027     0.44200
Cu241      Cu  0.66737234  0.66806408  0.86660077     0.42000
Cu242      Cu  0.61756702  0.60172745  0.87952281     0.43900
N243        N  0.58521293  0.59052088  0.81711903    -0.34800
N244        N  0.58716612  0.58147138  0.84719339    -0.29100
C245        C  0.56598474  0.55831541  0.85290982    -0.05200
C246        C  0.54971786  0.55190164  0.82498555     0.07000
C247        C  0.56250699  0.57273223  0.80243426     0.00800
H248        H  0.56263941  0.54698412  0.87591356     0.08500
H249        H  0.55568924  0.57498448  0.77760897     0.07600
N250        N  0.63725073  0.62725217  0.91607471    -0.36300
N251        N  0.65549043  0.65277461  0.91302446    -0.28400
C252        C  0.66132499  0.66458298  0.94269196    -0.03700
C253        C  0.64552160  0.64528547  0.96485537     0.04900
C254        C  0.63082158  0.62202891  0.94682575     0.03000
H255        H  0.67478793  0.68609467  0.94763352     0.08100
H256        H  0.61540655  0.60306845  0.95525578     0.07000
O257        O  0.46147288  0.11708642  0.44164101    -0.73100
O258        O  0.51438966  0.11835764  0.52019097    -0.74100
O259        O  0.44875694  0.11715902  0.50758899    -0.62700
O260        O  0.52731712  0.11838737  0.45440442    -0.71100
O261        O  0.52535688  0.17125113  0.45049021    -0.70600
O262        O  0.44907686  0.17007218  0.51116504    -0.61900
O263        O  0.51741970  0.17131453  0.51888218    -0.74400
O264        O  0.45701219  0.16993337  0.44260077    -0.73200
Cu265      Cu  0.48803782  0.11610441  0.48093285     1.04600
Cu266      Cu  0.48718466  0.17273569  0.48075227     1.04300
C267        C  0.45024633  0.14289017  0.42996321     0.93100
C268        C  0.52464057  0.14456418  0.53184341     0.92300
C269        C  0.43681458  0.14299818  0.51848969     0.84400
C270        C  0.53854558  0.14454170  0.44351325     0.90700
N271        N  0.29521905  0.14739640  0.29523204    -0.27400
N272        N  0.31116742  0.16982126  0.31103377    -0.35300
C273        C  0.29905681  0.19857093  0.30332323     0.00900
C274        C  0.27445146  0.19409451  0.28188772     0.06900
C275        C  0.27277794  0.16153655  0.27701185    -0.06200
H276        H  0.30817658  0.22117002  0.31198240     0.07600
H277        H  0.25690004  0.14903970  0.26087555     0.08800
Cu278      Cu  0.35030680  0.16292069  0.34107885     0.44200
Cu279      Cu  0.30445694  0.09836128  0.29629489     0.42000
Cu280      Cu  0.37869291  0.08454367  0.33466287     0.43900
N281        N  0.38949622  0.14738929  0.36744365    -0.34800
N282        N  0.39978976  0.11775022  0.36431802    -0.29100
C283        C  0.42370476  0.11256934  0.38496146    -0.05200
C284        C  0.42902775  0.14032113  0.40203166     0.07000
C285        C  0.40694956  0.16213004  0.39027805     0.00800
H286        H  0.43553576  0.08979910  0.38817439     0.08500
H287        H  0.40293501  0.18626304  0.39862848     0.07600
N288        N  0.35226726  0.04885849  0.31331305    -0.36300
N289        N  0.32407379  0.05269264  0.29971149    -0.28400
C290        C  0.31286464  0.02366810  0.29073281    -0.03700
C291        C  0.33541732  0.00077317  0.29923095     0.04900
C292        C  0.35992798  0.01787252  0.31331810     0.03000
H293        H  0.28992290  0.01951621  0.27956278     0.08100
H294        H  0.38151466  0.00848845  0.32397846     0.07000
N295        N  0.67955593  0.14687209  0.29299410    -0.27400
N296        N  0.66142185  0.16893805  0.30688897    -0.35300
C297        C  0.66879419  0.19777528  0.29485160     0.00900
C298        C  0.69257680  0.19405937  0.27246642     0.06900
C299        C  0.69908939  0.16160323  0.27190874    -0.06200
H300        H  0.65807338  0.22003647  0.30248945     0.07600
H301        H  0.71688991  0.14961635  0.25748386     0.08800
Cu302      Cu  0.62817810  0.16251074  0.34340251     0.44200
Cu303      Cu  0.67851270  0.09746483  0.30330265     0.42000
Cu304      Cu  0.63814067  0.08837143  0.37731965     0.43900
N305        N  0.60146789  0.14914573  0.38314328    -0.34800
N306        N  0.60643639  0.12074253  0.39579102    -0.29100
C307        C  0.58587134  0.11590099  0.41977242    -0.05200
C308        C  0.56686824  0.14267298  0.42278393     0.07000
C309        C  0.57739229  0.16355916  0.39917766     0.00800
H310        H  0.58404105  0.09388334  0.43321122     0.08500
H311        H  0.56745852  0.18667325  0.39324268     0.07600
N312        N  0.65732423  0.05070131  0.35271256    -0.36300
N313        N  0.67169271  0.05237556  0.32468272    -0.28400
C314        C  0.67863530  0.02216735  0.31510836    -0.03700
C315        C  0.66790739  0.00100528  0.33855083     0.04900
C316        C  0.65466778  0.02022646  0.36178165     0.03000
H317        H  0.68995167  0.01604362  0.29268686     0.08100
H318        H  0.64291025  0.01270670  0.38353035     0.07000
N319        N  0.29352081  0.14606011  0.66741790    -0.27400
N320        N  0.31082097  0.16850613  0.65309384    -0.35300
C321        C  0.30240044  0.19722628  0.66489222     0.00900
C322        C  0.27890401  0.19283026  0.68759882     0.06900
C323        C  0.27367881  0.16022810  0.68853137    -0.06200
H324        H  0.31227932  0.21979277  0.65702582     0.07600
H325        H  0.25640780  0.14772103  0.70315148     0.08800
Cu326      Cu  0.34449975  0.16178250  0.61665801     0.44200
Cu327      Cu  0.29539152  0.09681332  0.65774097     0.42000
Cu328      Cu  0.33853479  0.08483487  0.58577306     0.43900
N329        N  0.37303145  0.14705941  0.57836412    -0.34800
N330        N  0.36977267  0.11779968  0.56709894    -0.29100
C331        C  0.39107502  0.11283592  0.54374740    -0.05200
C332        C  0.40878702  0.14035726  0.53966329     0.07000
C333        C  0.39673407  0.16181217  0.56202780     0.00800
H334        H  0.39405082  0.09040050  0.53123151     0.08500
H335        H  0.40520852  0.18577060  0.56675471     0.07600
N336        N  0.31604523  0.04845811  0.60990488    -0.36300
N337        N  0.30062805  0.05136153  0.63726368    -0.28400
C338        C  0.29104272  0.02188026  0.64676992    -0.03700
C339        C  0.30103050  0.99978670  0.62393325     0.04900
C340        C  0.31667542  0.01778589  0.60112216     0.03000
H341        H  0.27813171  0.01689693  0.66859857     0.08100
H342        H  0.32856874  0.00926124  0.57983537     0.07000
N343        N  0.67246101  0.14423197  0.67413803    -0.27400
N344        N  0.65976607  0.16669112  0.65567032    -0.35300
C345        C  0.67152726  0.19530230  0.66424079     0.00900
C346        C  0.69240096  0.19096122  0.68928394     0.06900
C347        C  0.69248447  0.15839377  0.69513122    -0.06200
H348        H  0.66472482  0.21780444  0.65346087     0.07600
H349        H  0.70588709  0.14593884  0.71339907     0.08800
Cu350      Cu  0.62492811  0.16052060  0.62081469     0.44200
Cu351      Cu  0.66169090  0.09517442  0.67129663     0.42000
Cu352      Cu  0.58618622  0.08768581  0.63371842     0.43900
N353        N  0.58446384  0.14794912  0.59505435    -0.34800
N354        N  0.56995199  0.12064735  0.60118168    -0.29100
C355        C  0.54576771  0.11660154  0.58068058    -0.05200
C356        C  0.54463352  0.14271138  0.56059688     0.07000
C357        C  0.56950299  0.16238351  0.57034188     0.00800
H358        H  0.53098814  0.09541224  0.57953294     0.08500
H359        H  0.57705484  0.18456520  0.55942790     0.07600
N360        N  0.61117786  0.04915740  0.65104389    -0.36300
N361        N  0.63990773  0.05053442  0.66400119    -0.28400
C362        C  0.65007165  0.02026282  0.66948054    -0.03700
C363        C  0.62630194  0.99924677  0.65938295     0.04900
C364        C  0.60218977  0.01865093  0.64796480     0.03000
H365        H  0.67311389  0.01402492  0.67940075     0.08100
H366        H  0.57999486  0.01123777  0.63698416     0.07000
O367        O  0.43793721  0.84775227  0.50319562    -0.73100
O368        O  0.51758515  0.84804276  0.45208754    -0.74100
O369        O  0.45191785  0.84771145  0.43772199    -0.62700
O370        O  0.50339580  0.84771913  0.51731282    -0.71100
O371        O  0.50682189  0.79477938  0.51628020    -0.70600
O372        O  0.44860135  0.79477352  0.43848979    -0.61900
O373        O  0.51698249  0.79512670  0.44839578    -0.74400
O374        O  0.43870355  0.79481398  0.50647793    -0.73200
Cu375      Cu  0.47769747  0.84944973  0.47754465     1.04600
Cu376      Cu  0.47777832  0.79278327  0.47737606     1.04300
C377        C  0.42590841  0.82172354  0.51347627     0.93100
C378        C  0.52990995  0.82211759  0.44193178     0.92300
C379        C  0.44139411  0.82167355  0.42585672     0.84400
C380        C  0.51382339  0.82163515  0.52912105     0.90700
N381        N  0.28936479  0.81933745  0.28586793    -0.27400
N382        N  0.30478262  0.79717678  0.30264078    -0.35300
C383        C  0.29272640  0.76831274  0.29552248     0.00900
C384        C  0.26869462  0.77204716  0.27343221     0.06900
C385        C  0.26713314  0.80459975  0.26760506    -0.06200
H386        H  0.30128405  0.74601064  0.30543322     0.07600
H387        H  0.25131557  0.81664690  0.25107547     0.08800
Cu388      Cu  0.34280969  0.80302902  0.33436134     0.44200
Cu389      Cu  0.29896327  0.86893301  0.28687173     0.42000
Cu390      Cu  0.37192095  0.87850735  0.32894161     0.43900
N391        N  0.38155637  0.81676185  0.36239199    -0.34800
N392        N  0.39220621  0.84620361  0.35932786    -0.29100
C393        C  0.41568206  0.85148458  0.38034722    -0.05200
C394        C  0.42052296  0.82386857  0.39766354     0.07000
C395        C  0.39846871  0.80204641  0.38567794     0.00800
H396        H  0.42758697  0.87421886  0.38354406     0.08500
H397        H  0.39415576  0.77799569  0.39411085     0.07600
N398        N  0.34775542  0.91576179  0.30888589    -0.36300
N399        N  0.32003670  0.91416026  0.29394017    -0.28400
C400        C  0.31076374  0.94443574  0.28680268    -0.03700
C401        C  0.33417557  0.96545652  0.29795756     0.04900
C402        C  0.35699647  0.94611861  0.31162010     0.03000
H403        H  0.28860670  0.95069484  0.27504438     0.08100
H404        H  0.37850777  0.95345032  0.32391767     0.07000
N405        N  0.67636671  0.81936870  0.29733535    -0.27400
N406        N  0.65638980  0.79803980  0.30967278    -0.35300
C407        C  0.66204014  0.76939860  0.29637992     0.00900
C408        C  0.68674606  0.77254901  0.27492233     0.06900
C409        C  0.69559006  0.80437158  0.27622034    -0.06200
H410        H  0.64970421  0.74757463  0.30273142     0.07600
H411        H  0.71459803  0.81577156  0.26290990     0.08800
Cu412      Cu  0.62327090  0.80537701  0.34589008     0.44200
Cu413      Cu  0.67749926  0.86804561  0.30928451     0.42000
Cu414      Cu  0.63158526  0.88065526  0.38020049     0.43900
N415        N  0.59561308  0.81889648  0.38471427    -0.34800
N416        N  0.59959724  0.84742191  0.39751015    -0.29100
C417        C  0.57791209  0.85176878  0.42063238    -0.05200
C418        C  0.55925522  0.82460512  0.42275966     0.07000
C419        C  0.57118916  0.80399335  0.39968352     0.00800
H420        H  0.57502956  0.87372080  0.43399596     0.08500
H421        H  0.56189656  0.78075352  0.39321912     0.07600
N422        N  0.65373644  0.91700479  0.35537282    -0.36300
N423        N  0.67016131  0.91361947  0.32863628    -0.28400
C424        C  0.67873977  0.94300964  0.31805505    -0.03700
C425        C  0.66706644  0.96563294  0.33946143     0.04900
C426        C  0.65147401  0.94803595  0.36264488     0.03000
H427        H  0.69193226  0.94757239  0.29629873     0.08100
H428        H  0.63837742  0.95707818  0.38300608     0.07000
N429        N  0.28266703  0.81688043  0.66154699    -0.27400
N430        N  0.29888745  0.79456534  0.64579176    -0.35300
C431        C  0.29203490  0.76576316  0.65831801     0.00900
C432        C  0.27073833  0.76983910  0.68308464     0.06900
C433        C  0.26509356  0.80241901  0.68444626    -0.06200
H434        H  0.30182617  0.74337340  0.64985233     0.07600
H435        H  0.24932400  0.81472030  0.70083423     0.08800
Cu436      Cu  0.33024284  0.80118458  0.60753255     0.44200
Cu437      Cu  0.28413430  0.86649928  0.65225639     0.42000
Cu438      Cu  0.32675587  0.87861535  0.57999601     0.43900
N439        N  0.35989129  0.81632604  0.57051041    -0.34800
N440        N  0.35761602  0.84608558  0.56047286    -0.29100
C441        C  0.37985947  0.85167258  0.53820550    -0.05200
C442        C  0.39714934  0.82397792  0.53356728     0.07000
C443        C  0.38386719  0.80179203  0.55443041     0.00800
H444        H  0.38384120  0.87463034  0.52698239     0.08500
H445        H  0.39179939  0.77753196  0.55850433     0.07600
N446        N  0.30779328  0.91529918  0.60613446    -0.36300
N447        N  0.29264862  0.91254332  0.63365638    -0.28400
C448        C  0.28654200  0.94240845  0.64481423    -0.03700
C449        C  0.29862675  0.96447006  0.62289056     0.04900
C450        C  0.31172998  0.94609777  0.59889993     0.03000
H451        H  0.27496318  0.94765604  0.66731987     0.08100
H452        H  0.32442567  0.95433505  0.57796805     0.07000
N453        N  0.66523728  0.81647860  0.66747734    -0.27400
N454        N  0.64913519  0.79393521  0.65197349    -0.35300
C455        C  0.66020141  0.76510693  0.66086210     0.00900
C456        C  0.68434329  0.76951329  0.68278108     0.06900
C457        C  0.68692125  0.80222778  0.68660593    -0.06200
H458        H  0.65089432  0.74252288  0.65236371     0.07600
H459        H  0.70296647  0.81475881  0.70254712     0.08800
Cu460      Cu  0.61143706  0.80060843  0.62021334     0.44200
Cu461      Cu  0.65702043  0.86598176  0.66431971     0.42000
Cu462      Cu  0.58301497  0.87879954  0.62593320     0.43900
N463        N  0.57301440  0.81614453  0.59288569    -0.34800
N464        N  0.56262261  0.84572660  0.59606822    -0.29100
C465        C  0.53923132  0.85118385  0.57498161    -0.05200
C466        C  0.53432919  0.82366865  0.55751813     0.07000
C467        C  0.55612054  0.80167448  0.56947559     0.00800
H468        H  0.52756342  0.87402977  0.57170938     0.08500
H469        H  0.56032901  0.77764538  0.56092127     0.07600
N470        N  0.60941133  0.91531797  0.64523800    -0.36300
N471        N  0.63763629  0.91195884  0.65889879    -0.28400
C472        C  0.64865496  0.94137254  0.66685562    -0.03700
C473        C  0.62591542  0.96390338  0.65765742     0.04900
C474        C  0.60156354  0.94626063  0.64411238     0.03000
H475        H  0.67141861  0.94601908  0.67819201     0.08100
H476        H  0.57980902  0.95520306  0.63339436     0.07000
C477        C  0.69821895  0.70380138  0.22109356     0.80100
N478        N  0.72513131  0.69060983  0.23345122    -0.78200
C479        C  0.74102636  0.70546487  0.25750983     0.82500
N480        N  0.72936324  0.73311812  0.26987897    -0.78200
C481        C  0.70215318  0.74616012  0.25790941     0.82600
N482        N  0.68634630  0.73118215  0.23382912    -0.79900
O483        O  0.16534076  0.51101936  0.52472896    -0.73100
O484        O  0.16715172  0.45462997  0.44606847    -0.74100
O485        O  0.16457427  0.52240128  0.45727400    -0.62700
O486        O  0.16745709  0.44312498  0.51364994    -0.71100
O487        O  0.11464337  0.44018271  0.50972503    -0.70600
O488        O  0.11168664  0.52177804  0.46127455    -0.61900
O489        O  0.11415150  0.45674818  0.44471691    -0.74400
O490        O  0.11259256  0.50548114  0.52624065    -0.73200
Cu491      Cu  0.16818406  0.48284664  0.48545882     1.04600
Cu492      Cu  0.11157359  0.48096060  0.48552948     1.04300
C493        C  0.13838272  0.51685576  0.53786400     0.93100
C494        C  0.14060299  0.44744061  0.43275688     0.92300
C495        C  0.13727677  0.53474982  0.45103101     0.84400
C496        C  0.14108743  0.42886420  0.51977561     0.90700
N497        N  0.14715054  0.30090544  0.28970689    -0.27400
N498        N  0.16919733  0.31365854  0.30862697    -0.35300
C499        C  0.19755648  0.29991503  0.30234369     0.00900
C500        C  0.19328595  0.27774291  0.27836402     0.06900
C501        C  0.16123775  0.27908070  0.27067333    -0.06200
H502        H  0.21985277  0.30630499  0.31378134     0.07600
H503        H  0.14904325  0.26533827  0.25247774     0.08800
Cu504      Cu  0.16236724  0.35077386  0.34111514     0.44200
Cu505      Cu  0.09864285  0.31312168  0.28893456     0.42000
Cu506      Cu  0.08751068  0.38689789  0.32805006     0.43900
N507        N  0.14723902  0.39004123  0.36758301    -0.34800
N508        N  0.11917857  0.40322176  0.36180501    -0.29100
C509        C  0.11362644  0.42635689  0.38319070    -0.05200
C510        C  0.13954916  0.42825326  0.40342539     0.07000
C511        C  0.16065876  0.40493044  0.39288896     0.00800
H512        H  0.09167875  0.43994817  0.38466944     0.08500
H513        H  0.18316796  0.39825375  0.40370012     0.07600
N514        N  0.05061195  0.36214550  0.30718999    -0.36300
N515        N  0.05344538  0.33391991  0.29342446    -0.28400
C516        C  0.02388637  0.32323871  0.28569590    -0.03700
C517        C  0.00173042  0.34615479  0.29521289     0.04900
C518        C  0.01977080  0.37035542  0.30858570     0.03000
H519        H  0.01886088  0.30027283  0.27494569     0.08100
H520        H  0.01113191  0.39187962  0.31997651     0.07000
N521        N  0.14054948  0.67897630  0.30428567    -0.27400
N522        N  0.16236503  0.66029749  0.31777886    -0.35300
C523        C  0.19092986  0.66598269  0.30417336     0.00900
C524        C  0.18717376  0.68933402  0.28123928     0.06900
C525        C  0.15508055  0.69726702  0.28204298    -0.06200
H526        H  0.21304366  0.65452830  0.31113925     0.07600
H527        H  0.14317790  0.71513851  0.26763780     0.08800
Cu528      Cu  0.15503805  0.62863452  0.35553505     0.44200
Cu529      Cu  0.09169457  0.67994326  0.31622544     0.42000
Cu530      Cu  0.07802693  0.63507970  0.38747381     0.43900
N531        N  0.14040878  0.60059246  0.39390621    -0.34800
N532        N  0.11126887  0.60361952  0.40554611    -0.29100
C533        C  0.10661652  0.58168481  0.42841157    -0.05200
C534        C  0.13425660  0.56392823  0.43165440     0.07000
C535        C  0.15539567  0.57659407  0.40945707     0.00800
H536        H  0.08427491  0.57814811  0.44093917     0.08500
H537        H  0.17917788  0.56807911  0.40399441     0.07600
N538        N  0.04219343  0.65789741  0.36267976    -0.36300
N539        N  0.04581916  0.67389327  0.33572081    -0.28400
C540        C  0.01650002  0.68266513  0.32503435    -0.03700
C541        C  0.99372440  0.67151526  0.34660873     0.04900
C542        C  0.01116699  0.65613028  0.37002558     0.03000
H543        H  0.01205267  0.69531823  0.30293888     0.08100
H544        H  0.00201584  0.64322315  0.39044390     0.07000
N545        N  0.14785886  0.28621397  0.66734551    -0.27400
N546        N  0.16982478  0.30396740  0.65292793    -0.35300
C547        C  0.19869283  0.29685769  0.66508249     0.00900
C548        C  0.19492822  0.27369673  0.68818319     0.06900
C549        C  0.16250143  0.26729259  0.68898533    -0.06200
H550        H  0.22096439  0.30724796  0.65704670     0.07600
H551        H  0.15050889  0.24975296  0.70371932     0.08800
Cu552      Cu  0.16209470  0.33604526  0.61564573     0.44200
Cu553      Cu  0.09897559  0.28672765  0.65620982     0.42000
Cu554      Cu  0.08842095  0.32267233  0.57894563     0.43900
N555        N  0.14751769  0.36282326  0.57637367    -0.34800
N556        N  0.11979588  0.35682220  0.56262521    -0.29100
C557        C  0.11441766  0.37843708  0.53962320    -0.05200
C558        C  0.14011819  0.39911376  0.53848336     0.07000
C559        C  0.16088058  0.38851234  0.56208870     0.00800
H560        H  0.09265365  0.37988716  0.52573465     0.08500
H561        H  0.18307837  0.39954843  0.56939908     0.07600
N562        N  0.05157051  0.30407694  0.60561024    -0.36300
N563        N  0.05410409  0.29189336  0.63462261    -0.28400
C564        C  0.02433033  0.28618998  0.64596542    -0.03700
C565        C  0.00240091  0.29545777  0.62276412     0.04900
C566        C  0.02073094  0.30647173  0.59765834     0.03000
H567        H  0.01905005  0.27729612  0.66965094     0.08100
H568        H  0.01234491  0.31714089  0.57567157     0.07000
N569        N  0.14347649  0.66516931  0.68067274    -0.27400
N570        N  0.16509758  0.65137180  0.66194962    -0.35300
C571        C  0.19411231  0.66334874  0.66873990     0.00900
C572        C  0.19095355  0.68549833  0.69286010     0.06900
C573        C  0.15865127  0.68613601  0.69998946    -0.06200
H574        H  0.21606586  0.65607001  0.65717237     0.07600
H575        H  0.14702302  0.70075553  0.71786398     0.08800
Cu576      Cu  0.15749137  0.61555360  0.62824164     0.44200
Cu577      Cu  0.09395361  0.65537728  0.68033413     0.42000
Cu578      Cu  0.08236856  0.58312960  0.63760367     0.43900
N579        N  0.14300859  0.57654098  0.60112958    -0.34800
N580        N  0.11424052  0.56454888  0.60559679    -0.29100
C581        C  0.10908170  0.54083617  0.58476472    -0.05200
C582        C  0.13608891  0.53733060  0.56623109     0.07000
C583        C  0.15735336  0.56034517  0.57719028     0.00800
H584        H  0.08683708  0.52783344  0.58258465     0.08500
H585        H  0.18078626  0.56571860  0.56770313     0.07600
N586        N  0.04586400  0.60731313  0.65918169    -0.36300
N587        N  0.04833074  0.63486142  0.67433542    -0.28400
C588        C  0.01844337  0.64462157  0.68235466    -0.03700
C589        C  0.99668721  0.62174978  0.67152332     0.04900
C590        C  0.01525008  0.59865184  0.65716936     0.03000
H591        H  0.01291597  0.66686170  0.69431451     0.08100
H592        H  0.00717181  0.57746198  0.64480173     0.07000
O593        O  0.84470543  0.51029638  0.51935313    -0.73100
O594        O  0.84598760  0.45557759  0.44231973    -0.74100
O595        O  0.84379843  0.52142129  0.45334909    -0.62700
O596        O  0.84642603  0.44440028  0.50837375    -0.71100
O597        O  0.79354155  0.44374627  0.51218402    -0.70600
O598        O  0.79094622  0.51865574  0.44987183    -0.61900
O599        O  0.79323830  0.45017523  0.44354530    -0.74400
O600        O  0.79173140  0.51257818  0.51867900    -0.73200
Cu601      Cu  0.84683810  0.48296881  0.48084188     1.04600
Cu602      Cu  0.79024016  0.48122517  0.48109502     1.04300
C603        C  0.81857346  0.52063297  0.53104319     0.93100
C604        C  0.82036083  0.44379686  0.43086921     0.92300
C605        C  0.81742570  0.53197456  0.44232637     0.84400
C606        C  0.82086904  0.43210073  0.51951826     0.90700
N607        N  0.82137326  0.29736001  0.28583886    -0.27400
N608        N  0.79929047  0.30945560  0.30515967    -0.35300
C609        C  0.77062069  0.29732491  0.29726015     0.00900
C610        C  0.77452466  0.27681349  0.27180916     0.06900
C611        C  0.80688814  0.27741672  0.26497963    -0.06200
H612        H  0.74834490  0.30365404  0.30876697     0.07600
H613        H  0.81898866  0.26451611  0.24612230     0.08800
Cu614      Cu  0.80592335  0.34392129  0.34047660     0.44200
Cu615      Cu  0.87041037  0.30869083  0.28722586     0.42000
Cu616      Cu  0.87949966  0.38118768  0.33046369     0.43900
N617        N  0.81856921  0.38349661  0.36775249    -0.34800
N618        N  0.84644591  0.39735308  0.36288497    -0.29100
C619        C  0.85026981  0.42129527  0.38372595    -0.05200
C620        C  0.82338353  0.42298217  0.40274259     0.07000
C621        C  0.80352058  0.39866127  0.39199170     0.00800
H622        H  0.87160074  0.43580007  0.38555823     0.08500
H623        H  0.78057367  0.39181860  0.40171235     0.07600
N624        N  0.91699750  0.35816241  0.30886146    -0.36300
N625        N  0.91517774  0.33059223  0.29362528    -0.28400
C626        C  0.94517008  0.32162462  0.28526310    -0.03700
C627        C  0.96640022  0.34502935  0.29580210     0.04900
C628        C  0.94745046  0.36762328  0.31052683     0.03000
H629        H  0.95110381  0.29968127  0.27295167     0.08100
H630        H  0.95520125  0.38903798  0.32273372     0.07000
N631        N  0.81384158  0.67679307  0.29556610    -0.27400
N632        N  0.79230770  0.65631252  0.30680949    -0.35300
C633        C  0.76374185  0.66298779  0.29378926     0.00900
C634        C  0.76714575  0.68883434  0.27375014     0.06900
C635        C  0.79901392  0.69726745  0.27554437    -0.06200
H636        H  0.74176549  0.65061195  0.29950174     0.07600
H637        H  0.81056459  0.71694659  0.26338467     0.08800
Cu638      Cu  0.79850358  0.62123981  0.34168792     0.44200
Cu639      Cu  0.86265890  0.67819999  0.30743218     0.42000
Cu640      Cu  0.87149822  0.63348284  0.37758585     0.43900
N641        N  0.81195602  0.59430373  0.38128293    -0.34800
N642        N  0.83998801  0.60007278  0.39441207    -0.29100
C643        C  0.84507907  0.57960575  0.41839040    -0.05200
C644        C  0.81885173  0.55986339  0.42101238     0.07000
C645        C  0.79799566  0.56978508  0.39709460     0.00800
H646        H  0.86681134  0.57861494  0.43236625     0.08500
H647        H  0.77517387  0.55931686  0.39095563     0.07600
N648        N  0.90895433  0.65678005  0.35648053    -0.36300
N649        N  0.90738002  0.67296944  0.32949543    -0.28400
C650        C  0.93738845  0.68226541  0.32147317    -0.03700
C651        C  0.95836509  0.67119255  0.34491522     0.04900
C652        C  0.93918956  0.65532773  0.36653035     0.03000
H653        H  0.94354433  0.69530675  0.30002269     0.08100
H654        H  0.94666315  0.64234370  0.38757220     0.07000
N655        N  0.82116440  0.28756631  0.66759622    -0.27400
N656        N  0.79846315  0.30403738  0.65268338    -0.35300
C657        C  0.76988881  0.29563642  0.66470481     0.04700
C658        C  0.77455840  0.27304638  0.68818201     0.06900
C659        C  0.80722943  0.26825915  0.68937840    -0.06200
H660        H  0.74721528  0.30503948  0.65657048     0.07600
H661        H  0.81993789  0.25174609  0.70469228     0.08800
Cu662      Cu  0.80405678  0.33712786  0.61564026     0.44200
Cu663      Cu  0.87044216  0.29018815  0.65809600     0.42000
Cu664      Cu  0.88216375  0.33812818  0.58935286     0.43900
N665        N  0.81808862  0.36759274  0.57871387    -0.34800
N666        N  0.84815100  0.36700934  0.56936040    -0.29100
C667        C  0.85281674  0.38895007  0.54661806    -0.05200
C668        C  0.82427043  0.40440463  0.54096240     0.07000
C669        C  0.80245832  0.39025642  0.56171233     0.00800
H670        H  0.87566806  0.39384018  0.53554994     0.08500
H671        H  0.77759601  0.39656867  0.56487080     0.07600
N672        N  0.91871082  0.31486312  0.61202189    -0.36300
N673        N  0.91587407  0.29743650  0.63815117    -0.28400
C674        C  0.94536478  0.28716117  0.64675738    -0.03700
C675        C  0.96729132  0.29871222  0.62452802     0.04900
C676        C  0.94931617  0.31609184  0.60308156     0.03000
H677        H  0.95042791  0.27241568  0.66737237     0.08100
H678        H  0.95780421  0.32933026  0.58258331     0.07000
N679        N  0.81587729  0.66737842  0.67608645    -0.27400
N680        N  0.79495629  0.65674265  0.65471808    -0.35300
C681        C  0.76632220  0.67002487  0.66062544     0.00900
C682        C  0.76905005  0.68954357  0.68699676     0.06900
C683        C  0.80062345  0.68721526  0.69643072    -0.06200
H684        H  0.74473388  0.66484060  0.64736674     0.07600
H685        H  0.81170377  0.69899495  0.71660856     0.08800
Cu686      Cu  0.80265319  0.62214799  0.61965738     0.44200
Cu687      Cu  0.86440246  0.65493296  0.67802834     0.42000
Cu688      Cu  0.87616155  0.58501568  0.63148133     0.43900
N689        N  0.81559301  0.58197426  0.59326134    -0.34800
N690        N  0.84344289  0.56827002  0.59874328    -0.29100
C691        C  0.84750697  0.54390570  0.57842495    -0.05200
C692        C  0.82083930  0.54171800  0.55911842     0.07000
C693        C  0.80083111  0.56626211  0.56914946     0.00800
H694        H  0.86888375  0.52941351  0.57711943     0.08500
H695        H  0.77802259  0.57291795  0.55897566     0.07600
N696        N  0.91259401  0.60780605  0.65547501    -0.36300
N697        N  0.90964809  0.63440394  0.67217773    -0.28400
C698        C  0.93911920  0.64380285  0.68182691    -0.03700
C699        C  0.96130746  0.62171221  0.67055075     0.04900
C700        C  0.94335925  0.59937716  0.65412489     0.03000
H701        H  0.94406282  0.66528505  0.69532687     0.08100
H702        H  0.95202038  0.57896230  0.64087945     0.07000
C703        C  0.25762170  0.21912508  0.26427136     0.80100
N704        N  0.26959597  0.22959789  0.23601302    -0.78200
C705        C  0.25584050  0.25465408  0.22068741     0.82500
N706        N  0.23049390  0.26976903  0.23417604    -0.78200
C707        C  0.21843511  0.25938422  0.26246229     0.82600
N708        N  0.23246068  0.23447180  0.27782090    -0.79900
loop_ 
_geom_bond_atom_site_label_1 
_geom_bond_atom_site_label_2 
_geom_bond_distance 
_geom_bond_site_symmetry_2 
_ccdc_geom_bond_type 
C1            N2   1.360       .  A
C1            N6   1.359       .  A
C1          C682   1.466       .  S
N2            C3   1.360       .  A
C3            N4   1.358       .  A
C3          C236   1.467       .  S
N4            C5   1.358       .  A
C5            N6   1.357       .  A
C5          C456   1.465       .  S
C7            N8   1.359       .  A
C7           N12   1.359       .  A
C7          C384   1.468       .  S
N8            C9   1.359       .  A
C9           N10   1.360       .  A
C9           C78   1.469       .  S
N10          C11   1.360       .  A
C11          N12   1.359       .  A
C11         C524   1.469       .  S
C13          N14   1.358       .  A
C13          N18   1.360       .  A
C13         C346   1.467       .  S
N14          C15   1.358       .  A
C15          N16   1.359       .  A
C15         C658   1.467       .  S
N16          C17   1.359       .  A
C17          N18   1.360       .  A
C17         C212   1.469       .  S
C19          N20   1.360       .  A
C19          N24   1.359       .  A
C19         C164   1.467       .  S
N20          C21   1.359       .  A
C21          N22   1.359       .  A
C21         C322   1.469       .  S
N22          C23   1.359       .  A
C23          N24   1.358       .  A
C23         C548   1.467       .  S
C25          N26   1.361       .  A
C25          N30   1.358       .  A
C25         C432   1.470       .  S
N26          C27   1.361       .  A
C27          N28   1.360       .  A
C27         C188   1.472       .  S
N28          C29   1.360       .  A
C29          N30   1.358       .  A
C29         C572   1.469       .  S
C31          N32   1.359       .  A
C31          N36   1.360       .  A
C31         C610   1.469       .  S
N32          C33   1.359       .  A
C33          N34   1.359       .  A
C33         C298   1.468       .  S
N34          C35   1.359       .  A
C35          N36   1.360       .  A
C35         C102   1.469       .  S
O37         Cu45   2.041       .  S
O37          C47   1.281       .  A
O38         Cu45   2.043       .  S
O38          C48   1.281       .  A
O39         Cu45   2.049       .  S
O39          C49   1.282       .  A
O40         Cu45   2.044       .  S
O40          C50   1.281       .  A
O41         Cu46   1.986       .  S
O41          C50   1.275       .  A
O42         Cu46   1.991       .  S
O42          C49   1.276       .  A
O43         Cu46   1.987       .  S
O43          C48   1.275       .  A
O44         Cu46   1.989       .  S
O44          C47   1.275       .  A
Cu45        Cu46   2.370       .  S
C47          C64   1.473       .  S
C48         C136   1.475       .  S
C49          C88   1.478       .  S
C50         C112   1.473       .  S
N51          C55   1.351       .  A
N51          N52   1.328       .  A
N51         Cu59   2.100       .  S
N52          C53   1.341       .  A
N52         Cu58   2.079       .  S
C53          C54   1.375       .  A
C53          H56   1.082       .  S
C54         C705   1.462       .  S
C54          C55   1.383       .  A
C55          H57   1.082       .  S
Cu58         N61   2.075       .  S
Cu59         N69   2.096       .  S
Cu60         N62   2.060       .  S
Cu60         N68   2.058       .  S
N61          C65   1.352       .  A
N61          N62   1.318       .  A
N62          C63   1.340       .  A
C63          C64   1.382       .  A
C63          H66   1.082       .  S
C64          C65   1.389       .  A
C65          H67   1.082       .  S
N68          C72   1.335       .  A
N68          N69   1.321       .  A
N69          C70   1.356       .  A
C70          C71   1.393       .  A
C70          H73   1.082       .  S
C71         C181   1.480   1_554  S
C71          C72   1.380       .  A
C72          H74   1.082       .  S
N75          C79   1.349       .  A
N75          N76   1.329       .  A
N75         Cu83   2.096       .  S
N76          C77   1.347       .  A
N76         Cu82   2.098       .  S
C77          C78   1.380       .  A
C77          H80   1.082       .  S
C78          C79   1.381       .  A
C79          H81   1.082       .  S
Cu82         N85   2.094       .  S
Cu83         N93   2.092       .  S
Cu84         N86   2.058       .  S
Cu84         N92   2.058       .  S
N85          C89   1.355       .  A
N85          N86   1.319       .  A
N86          C87   1.339       .  A
C87          C88   1.381       .  A
C87          H90   1.082       .  S
C88          C89   1.393       .  A
C89          H91   1.082       .  S
N92          C96   1.336       .  A
N92          N93   1.320       .  A
N93          C94   1.356       .  A
C94          C95   1.391       .  A
C94          H97   1.082       .  S
C95         C205   1.476   1_554  S
C95          C96   1.380       .  A
C96          H98   1.082       .  S
N99         C103   1.349       .  A
N99         N100   1.328       .  A
N99        Cu107   2.097       .  S
N100        C101   1.346       .  A
N100       Cu106   2.091       .  S
C101        C102   1.380       .  A
C101        H104   1.082       .  S
C102        C103   1.382       .  A
C103        H105   1.082       .  S
Cu106       N109   2.087       .  S
Cu107       N117   2.093       .  S
Cu108       N110   2.061       .  S
Cu108       N116   2.059       .  S
N109        C113   1.353       .  A
N109        N110   1.320       .  A
N110        C111   1.340       .  A
C111        C112   1.381       .  A
C111        H114   1.082       .  S
C112        C113   1.389       .  A
C113        H115   1.081       .  S
N116        C120   1.336       .  A
N116        N117   1.320       .  A
N117        C118   1.355       .  A
C118        C119   1.391   1_554  A
C118        H121   1.082       .  S
C119        C229   1.479       .  S
C119        C120   1.382   1_556  A
C120        H122   1.082       .  S
N123        C127   1.347       .  A
N123        N124   1.329       .  A
N123       Cu131   2.093       .  S
N124        C125   1.346       .  A
N124       Cu130   2.091       .  S
C125        C126   1.378       .  A
C125        H128   1.082       .  S
C126        C477   1.463       .  S
C126        C127   1.379       .  A
C127        H129   1.082       .  S
Cu130       N133   2.087       .  S
Cu131       N141   2.089       .  S
Cu132       N134   2.057       .  S
Cu132       N140   2.057       .  S
N133        C137   1.353       .  A
N133        N134   1.319       .  A
N134        C135   1.339       .  A
C135        C136   1.381       .  A
C135        H138   1.082       .  S
C136        C137   1.391       .  A
C137        H139   1.082       .  S
N140        C144   1.335       .  A
N140        N141   1.319       .  A
N141        C142   1.356       .  A
C142        C143   1.392   1_554  A
C142        H145   1.082       .  S
C143        C253   1.479       .  S
C143        C144   1.381   1_556  A
C144        H146   1.082       .  S
O147       Cu155   1.985       .  S
O147        C157   1.276       .  A
O148       Cu155   1.979       .  S
O148        C158   1.275       .  A
O149       Cu155   1.971       .  S
O149        C159   1.274       .  A
O150       Cu155   1.977       .  S
O150        C160   1.274       .  A
O151       Cu156   2.050       .  S
O151        C160   1.282       .  A
O152       Cu156   2.048       .  S
O152        C159   1.281       .  A
O153       Cu156   2.049       .  S
O153        C158   1.281       .  A
O154       Cu156   2.042       .  S
O154        C157   1.280       .  A
Cu155      Cu156   2.372       .  S
C157        C198   1.474       .  S
C158        C222   1.474       .  S
C159        C246   1.471       .  S
C160        C174   1.473       .  S
N161        C165   1.350       .  A
N161        N162   1.329       .  A
N161       Cu169   2.104       .  S
N162        C163   1.344       .  A
N162       Cu168   2.085       .  S
C163        C164   1.376       .  A
C163        H166   1.082       .  S
C164        C165   1.383       .  A
C165        H167   1.082       .  S
Cu168       N171   2.081       .  S
Cu169       N179   2.099       .  S
Cu170       N172   2.056       .  S
Cu170       N178   2.054       .  S
N171        C175   1.353       .  A
N171        N172   1.318       .  A
N172        C173   1.338       .  A
C173        C174   1.381       .  A
C173        H176   1.082       .  S
C174        C175   1.390       .  A
C175        H177   1.081       .  S
N178        C182   1.335       .  A
N178        N179   1.320       .  A
N179        C180   1.356       .  A
C180        C181   1.394       .  A
C180        H183   1.082       .  S
C181        C182   1.379       .  A
C182        H184   1.082       .  S
N185        C189   1.351       .  A
N185        N186   1.329       .  A
N185       Cu193   2.110       .  S
N186        C187   1.346       .  A
N186       Cu192   2.096       .  S
C187        C188   1.379       .  A
C187        H190   1.082       .  S
C188        C189   1.385       .  A
C189        H191   1.082       .  S
Cu192       N195   2.091       .  S
Cu193       N203   2.105       .  S
Cu194       N196   2.043       .  S
Cu194       N202   2.041       .  S
N195        C199   1.354       .  A
N195        N196   1.317       .  A
N196        C197   1.337       .  A
C197        C198   1.379       .  A
C197        H200   1.082       .  S
C198        C199   1.393       .  A
C199        H201   1.081       .  S
N202        C206   1.334       .  A
N202        N203   1.320       .  A
N203        C204   1.357       .  A
C204        C205   1.395       .  A
C204        H207   1.082       .  S
C205        C206   1.376       .  A
C206        H208   1.082       .  S
N209        C213   1.350       .  A
N209        N210   1.331       .  A
N209       Cu217   2.108       .  S
N210        C211   1.346       .  A
N210       Cu216   2.101       .  S
C211        C212   1.379       .  A
C211        H214   1.082       .  S
C212        C213   1.382       .  A
C213        H215   1.082       .  S
Cu216       N219   2.095       .  S
Cu217       N227   2.102       .  S
Cu218       N220   2.037       .  S
Cu218       N226   2.037       .  S
N219        C223   1.356       .  A
N219        N220   1.317       .  A
N220        C221   1.335       .  A
C221        C222   1.378       .  A
C221        H224   1.082       .  S
C222        C223   1.395       .  A
C223        H225   1.081       .  S
N226        C230   1.333       .  A
N226        N227   1.318       .  A
N227        C228   1.357       .  A
C228        C229   1.396       .  A
C228        H231   1.082       .  S
C229        C230   1.377       .  A
C230        H232   1.082       .  S
N233        C237   1.351       .  A
N233        N234   1.330       .  A
N233       Cu241   2.111       .  S
N234        C235   1.344       .  A
N234       Cu240   2.088       .  S
C235        C236   1.376       .  A
C235        H238   1.082       .  S
C236        C237   1.383       .  A
C237        H239   1.082       .  S
Cu240       N243   2.083       .  S
Cu241       N251   2.105       .  S
Cu242       N244   2.041       .  S
Cu242       N250   2.039       .  S
N243        C247   1.354       .  A
N243        N244   1.317       .  A
N244        C245   1.335       .  A
C245        C246   1.379       .  A
C245        H248   1.082       .  S
C246        C247   1.392       .  A
C247        H249   1.081       .  S
N250        C254   1.333       .  A
N250        N251   1.319       .  A
N251        C252   1.358       .  A
C252        C253   1.396       .  A
C252        H255   1.082       .  S
C253        C254   1.376       .  A
C254        H256   1.082       .  S
O257       Cu265   1.985       .  S
O257        C267   1.275       .  A
O258       Cu265   1.981       .  S
O258        C268   1.274       .  A
O259       Cu265   1.987       .  S
O259        C269   1.275       .  A
O260       Cu265   1.986       .  S
O260        C270   1.275       .  A
O261       Cu266   2.040       .  S
O261        C270   1.280       .  A
O262       Cu266   2.043       .  S
O262        C269   1.281       .  A
O263       Cu266   2.037       .  S
O263        C268   1.280       .  A
O264       Cu266   2.039       .  S
O264        C267   1.281       .  A
Cu265      Cu266   2.370       .  S
C267        C284   1.472       .  S
C268        C356   1.468       .  S
C269        C332   1.474       .  S
C270        C308   1.471       .  S
N271        C275   1.347       .  A
N271        N272   1.328       .  A
N271       Cu279   2.088       .  S
N272        C273   1.345       .  A
N272       Cu278   2.085       .  S
C273        C274   1.378       .  A
C273        H276   1.082       .  S
C274        C703   1.462       .  S
C274        C275   1.379       .  A
C275        H277   1.082       .  S
Cu278       N281   2.081       .  S
Cu279       N289   2.085       .  S
Cu280       N282   2.062       .  S
Cu280       N288   2.062       .  S
N281        C285   1.352       .  A
N281        N282   1.319       .  A
N282        C283   1.340       .  A
C283        C284   1.381       .  A
C283        H286   1.082       .  S
C284        C285   1.389       .  A
C285        H287   1.082       .  S
N288        C292   1.336       .  A
N288        N289   1.320       .  A
N289        C290   1.355       .  A
C290        C291   1.391       .  A
C290        H293   1.082       .  S
C291        C401   1.480   1_545  S
C291        C292   1.383       .  A
C292        H294   1.081       .  S
N295        C299   1.352       .  A
N295        N296   1.329       .  A
N295       Cu303   2.112       .  S
N296        C297   1.343       .  A
N296       Cu302   2.084       .  S
C297        C298   1.376       .  A
C297        H300   1.082       .  S
C298        C299   1.385       .  A
C299        H301   1.082       .  S
Cu302       N305   2.080       .  S
Cu303       N313   2.108       .  S
Cu304       N306   2.048       .  S
Cu304       N312   2.047       .  S
N305        C309   1.352       .  A
N305        N306   1.318       .  A
N306        C307   1.338       .  A
C307        C308   1.380       .  A
C307        H310   1.082       .  S
C308        C309   1.391       .  A
C309        H311   1.082       .  S
N312        C316   1.335       .  A
N312        N313   1.320       .  A
N313        C314   1.357       .  A
C314        C315   1.396       .  A
C314        H317   1.082       .  S
C315        C425   1.481   1_545  S
C315        C316   1.378       .  A
C316        H318   1.081       .  S
N319        C323   1.350       .  A
N319        N320   1.329       .  A
N319       Cu327   2.101       .  S
N320        C321   1.346       .  A
N320       Cu326   2.095       .  S
C321        C322   1.380       .  A
C321        H324   1.082       .  S
C322        C323   1.382       .  A
C323        H325   1.082       .  S
Cu326       N329   2.091       .  S
Cu327       N337   2.097       .  S
Cu328       N330   2.055       .  S
Cu328       N336   2.055       .  S
N329        C333   1.354       .  A
N329        N330   1.319       .  A
N330        C331   1.339       .  A
C331        C332   1.380       .  A
C331        H334   1.082       .  S
C332        C333   1.391       .  A
C333        H335   1.082       .  S
N336        C340   1.335       .  A
N336        N337   1.320       .  A
N337        C338   1.357       .  A
C338        C339   1.394   1_545  A
C338        H341   1.082       .  S
C339        C449   1.482       .  S
C339        C340   1.381   1_565  A
C340        H342   1.081       .  S
N343        C347   1.351       .  A
N343        N344   1.328       .  A
N343       Cu351   2.105       .  S
N344        C345   1.343       .  A
N344       Cu350   2.078       .  S
C345        C346   1.376       .  A
C345        H348   1.082       .  S
C346        C347   1.384       .  A
C347        H349   1.082       .  S
Cu350       N353   2.075       .  S
Cu351       N361   2.101       .  S
Cu352       N354   2.054       .  S
Cu352       N360   2.054       .  S
N353        C357   1.351       .  A
N353        N354   1.319       .  A
N354        C355   1.338       .  A
C355        C356   1.379       .  A
C355        H358   1.082       .  S
C356        C357   1.388       .  A
C357        H359   1.082       .  S
N360        C364   1.337       .  A
N360        N361   1.320       .  A
N361        C362   1.356       .  A
C362        C363   1.393   1_545  A
C362        H365   1.082       .  S
C363        C473   1.481       .  S
C363        C364   1.380   1_565  A
C364        H366   1.082       .  S
O367       Cu375   1.981       .  S
O367        C377   1.275       .  A
O368       Cu375   1.981       .  S
O368        C378   1.274       .  A
O369       Cu375   1.987       .  S
O369        C379   1.276       .  A
O370       Cu375   1.983       .  S
O370        C380   1.275       .  A
O371       Cu376   2.033       .  S
O371        C380   1.280       .  A
O372       Cu376   2.036       .  S
O372        C379   1.280       .  A
O373       Cu376   2.043       .  S
O373        C378   1.281       .  A
O374       Cu376   2.041       .  S
O374        C377   1.281       .  A
Cu375      Cu376   2.371       .  S
C377        C442   1.471       .  S
C378        C418   1.471       .  S
C379        C394   1.471       .  S
C380        C466   1.468       .  S
N381        C385   1.353       .  A
N381        N382   1.330       .  A
N381       Cu389   2.114       .  S
N382        C383   1.342       .  A
N382       Cu388   2.087       .  S
C383        C384   1.375       .  A
C383        H386   1.082       .  S
C384        C385   1.385       .  A
C385        H387   1.082       .  S
Cu388       N391   2.082       .  S
Cu389       N399   2.109       .  S
Cu390       N392   2.041       .  S
Cu390       N398   2.039       .  S
N391        C395   1.353       .  A
N391        N392   1.316       .  A
N392        C393   1.337       .  A
C393        C394   1.379       .  A
C393        H396   1.082       .  S
C394        C395   1.392       .  A
C395        H397   1.082       .  S
N398        C402   1.333       .  A
N398        N399   1.320       .  A
N399        C400   1.358       .  A
C400        C401   1.397       .  A
C400        H403   1.082       .  S
C401        C402   1.376       .  A
C402        H404   1.081       .  S
N405        C409   1.350       .  A
N405        N406   1.327       .  A
N405       Cu413   2.098       .  S
N406        C407   1.342       .  A
N406       Cu412   2.077       .  S
C407        C408   1.376       .  A
C407        H410   1.082       .  S
C408        C481   1.463       .  S
C408        C409   1.383       .  A
C409        H411   1.082       .  S
Cu412       N415   2.074       .  S
Cu413       N423   2.094       .  S
Cu414       N416   2.062       .  S
Cu414       N422   2.062       .  S
N415        C419   1.351       .  A
N415        N416   1.319       .  A
N416        C417   1.339       .  A
C417        C418   1.382       .  A
C417        H420   1.082       .  S
C418        C419   1.388       .  A
C419        H421   1.082       .  S
N422        C426   1.337       .  A
N422        N423   1.321       .  A
N423        C424   1.355       .  A
C424        C425   1.392       .  A
C424        H427   1.082       .  S
C425        C426   1.382       .  A
C426        H428   1.081       .  S
N429        C433   1.351       .  A
N429        N430   1.329       .  A
N429       Cu437   2.113       .  S
N430        C431   1.345       .  A
N430       Cu436   2.089       .  S
C431        C432   1.378       .  A
C431        H434   1.082       .  S
C432        C433   1.385       .  A
C433        H435   1.082       .  S
Cu436       N439   2.084       .  S
Cu437       N447   2.108       .  S
Cu438       N440   2.046       .  S
Cu438       N446   2.045       .  S
N439        C443   1.353       .  A
N439        N440   1.318       .  A
N440        C441   1.338       .  A
C441        C442   1.380       .  A
C441        H444   1.082       .  S
C442        C443   1.390       .  A
C443        H445   1.082       .  S
N446        C450   1.334       .  A
N446        N447   1.320       .  A
N447        C448   1.358       .  A
C448        C449   1.396       .  A
C448        H451   1.082       .  S
C449        C450   1.378       .  A
C450        H452   1.081       .  S
N453        C457   1.349       .  A
N453        N454   1.328       .  A
N453       Cu461   2.104       .  S
N454        C455   1.345       .  A
N454       Cu460   2.082       .  S
C455        C456   1.377       .  A
C455        H458   1.082       .  S
C456        C457   1.382       .  A
C457        H459   1.082       .  S
Cu460       N463   2.077       .  S
Cu461       N471   2.100       .  S
Cu462       N464   2.051       .  S
Cu462       N470   2.051       .  S
N463        C467   1.351       .  A
N463        N464   1.319       .  A
N464        C465   1.338       .  A
C465        C466   1.379       .  A
C465        H468   1.082       .  S
C466        C467   1.389       .  A
C467        H469   1.082       .  S
N470        C474   1.337       .  A
N470        N471   1.320       .  A
N471        C472   1.356       .  A
C472        C473   1.394       .  A
C472        H475   1.082       .  S
C473        C474   1.380       .  A
C474        H476   1.082       .  S
C477        N478   1.357       .  A
C477        N482   1.358       .  A
N478        C479   1.357       .  A
C479        N480   1.358       .  A
C479        C634   1.463       .  S
N480        C481   1.358       .  A
C481        N482   1.359       .  A
O483       Cu491   2.026       .  S
O483        C493   1.279       .  A
O484       Cu491   2.028       .  S
O484        C494   1.279       .  A
O485       Cu491   2.038       .  S
O485        C495   1.281       .  A
O486       Cu491   2.038       .  S
O486        C496   1.280       .  A
O487       Cu492   1.988       .  S
O487        C496   1.275       .  A
O488       Cu492   1.987       .  S
O488        C495   1.275       .  A
O489       Cu492   1.989       .  S
O489        C494   1.276       .  A
O490       Cu492   1.989       .  S
O490        C493   1.276       .  A
Cu491      Cu492   2.370       .  S
C493        C582   1.467       .  S
C494        C510   1.467       .  S
C495        C534   1.471       .  S
C496        C558   1.471       .  S
N497        C501   1.348       .  A
N497        N498   1.328       .  A
N497       Cu505   2.094       .  S
N498        C499   1.345       .  A
N498       Cu504   2.084       .  S
C499        C500   1.378       .  A
C499        H502   1.082       .  S
C500        C707   1.463       .  S
C500        C501   1.380       .  A
C501        H503   1.082       .  S
Cu504       N507   2.080       .  S
Cu505       N515   2.090       .  S
Cu506       N508   2.054       .  S
Cu506       N514   2.054       .  S
N507        C511   1.351       .  A
N507        N508   1.320       .  A
N508        C509   1.339       .  A
C509        C510   1.378       .  A
C509        H512   1.082       .  S
C510        C511   1.388       .  A
C511        H513   1.082       .  S
N514        C518   1.337       .  A
N514        N515   1.319       .  A
N515        C516   1.354       .  A
C516        C517   1.392       .  A
C516        H519   1.082       .  S
C517        C627   1.479   1_455  S
C517        C518   1.381       .  A
C518        H520   1.081       .  S
N521        C525   1.350       .  A
N521        N522   1.328       .  A
N521       Cu529   2.105       .  S
N522        C523   1.345       .  A
N522       Cu528   2.085       .  S
C523        C524   1.379       .  A
C523        H526   1.082       .  S
C524        C525   1.384       .  A
C525        H527   1.082       .  S
Cu528       N531   2.081       .  S
Cu529       N539   2.101       .  S
Cu530       N532   2.059       .  S
Cu530       N538   2.058       .  S
N531        C535   1.351       .  A
N531        N532   1.319       .  A
N532        C533   1.340       .  A
C533        C534   1.381       .  A
C533        H536   1.082       .  S
C534        C535   1.388       .  A
C535        H537   1.082       .  S
N538        C542   1.336       .  A
N538        N539   1.321       .  A
N539        C540   1.357       .  A
C540        C541   1.393   1_455  A
C540        H543   1.082       .  S
C541        C651   1.482       .  S
C541        C542   1.381   1_655  A
C542        H544   1.081       .  S
N545        C549   1.350       .  A
N545        N546   1.327       .  A
N545       Cu553   2.098       .  S
N546        C547   1.344       .  A
N546       Cu552   2.083       .  S
C547        C548   1.378       .  A
C547        H550   1.082       .  S
C548        C549   1.384       .  A
C549        H551   1.082       .  S
Cu552       N555   2.081       .  S
Cu553       N563   2.095       .  S
Cu554       N556   2.057       .  S
Cu554       N562   2.056       .  S
N555        C559   1.351       .  A
N555        N556   1.319       .  A
N556        C557   1.340       .  A
C557        C558   1.381       .  A
C557        H560   1.082       .  S
C558        C559   1.388       .  A
C559        H561   1.082       .  S
N562        C566   1.337       .  A
N562        N563   1.321       .  A
N563        C564   1.355       .  A
C564        C565   1.391       .  A
C564        H567   1.082       .  S
C565        C675   1.477   1_455  S
C565        C566   1.380       .  A
C566        H568   1.081       .  S
N569        C573   1.351       .  A
N569        N570   1.329       .  A
N569       Cu577   2.113       .  S
N570        C571   1.344       .  A
N570       Cu576   2.083       .  S
C571        C572   1.377       .  A
C571        H574   1.082       .  S
C572        C573   1.385       .  A
C573        H575   1.082       .  S
Cu576       N579   2.078       .  S
Cu577       N587   2.108       .  S
Cu578       N580   2.044       .  S
Cu578       N586   2.043       .  S
N579        C583   1.350       .  A
N579        N580   1.318       .  A
N580        C581   1.338       .  A
C581        C582   1.379       .  A
C581        H584   1.082       .  S
C582        C583   1.389       .  A
C583        H585   1.082       .  S
N586        C590   1.334       .  A
N586        N587   1.320       .  A
N587        C588   1.358       .  A
C588        C589   1.397   1_455  A
C588        H591   1.082       .  S
C589        C699   1.481       .  S
C589        C590   1.378   1_655  A
C590        H592   1.081       .  S
O593       Cu601   1.978       .  S
O593        C603   1.274       .  A
O594       Cu601   1.978       .  S
O594        C604   1.274       .  A
O595       Cu601   1.982       .  S
O595        C605   1.275       .  A
O596       Cu601   1.983       .  S
O596        C606   1.275       .  A
O597       Cu602   2.042       .  S
O597        C606   1.280       .  A
O598       Cu602   2.040       .  S
O598        C605   1.280       .  A
O599       Cu602   2.043       .  S
O599        C604   1.281       .  A
O600       Cu602   2.049       .  S
O600        C603   1.282       .  A
Cu601      Cu602   2.370       .  S
C603        C692   1.472       .  S
C604        C620   1.470       .  S
C605        C644   1.470       .  S
C606        C668   1.473       .  S
N607        C611   1.351       .  A
N607        N608   1.328       .  A
N607       Cu615   2.107       .  S
N608        C609   1.344       .  A
N608       Cu614   2.083       .  S
C609        C610   1.378       .  A
C609        H612   1.082       .  S
C610        C611   1.384       .  A
C611        H613   1.082       .  S
Cu614       N617   2.080       .  S
Cu615       N625   2.103       .  S
Cu616       N618   2.052       .  S
Cu616       N624   2.051       .  S
N617        C621   1.352       .  A
N617        N618   1.319       .  A
N618        C619   1.338       .  A
C619        C620   1.380       .  A
C619        H622   1.082       .  S
C620        C621   1.389       .  A
C621        H623   1.082       .  S
N624        C628   1.336       .  A
N624        N625   1.320       .  A
N625        C626   1.356       .  A
C626        C627   1.394       .  A
C626        H629   1.082       .  S
C627        C628   1.379       .  A
C628        H630   1.081       .  S
N631        C635   1.349       .  A
N631        N632   1.330       .  A
N631       Cu639   2.103       .  S
N632        C633   1.343       .  A
N632       Cu638   2.086       .  S
C633        C634   1.376       .  A
C633        H636   1.082       .  S
C634        C635   1.382       .  A
C635        H637   1.082       .  S
Cu638       N641   2.082       .  S
Cu639       N649   2.098       .  S
Cu640       N642   2.047       .  S
Cu640       N648   2.046       .  S
N641        C645   1.353       .  A
N641        N642   1.318       .  A
N642        C643   1.336       .  A
C643        C644   1.378       .  A
C643        H646   1.082       .  S
C644        C645   1.391       .  A
C645        H647   1.082       .  S
N648        C652   1.335       .  A
N648        N649   1.319       .  A
N649        C650   1.357       .  A
C650        C651   1.396       .  A
C650        H653   1.082       .  S
C651        C652   1.380       .  A
C652        H654   1.081       .  S
N655        C659   1.350       .  A
N655        N656   1.329       .  A
N655       Cu663   2.103       .  S
N656        C657   1.344       .  A
N656       Cu662   2.092       .  S
C657        C658   1.377       .  A
C657        H660   1.082       .  S
C658        C659   1.383       .  A
C659        H661   1.082       .  S
Cu662       N665   2.088       .  S
Cu663       N673   2.099       .  S
Cu664       N666   2.046       .  S
Cu664       N672   2.046       .  S
N665        C669   1.354       .  A
N665        N666   1.318       .  A
N666        C667   1.337       .  A
C667        C668   1.379       .  A
C667        H670   1.082       .  S
C668        C669   1.392       .  A
C669        H671   1.082       .  S
N672        C676   1.335       .  A
N672        N673   1.320       .  A
N673        C674   1.356       .  A
C674        C675   1.393       .  A
C674        H677   1.082       .  S
C675        C676   1.378       .  A
C676        H678   1.081       .  S
N679        C683   1.350       .  A
N679        N680   1.328       .  A
N679       Cu687   2.098       .  S
N680        C681   1.344       .  A
N680       Cu686   2.086       .  S
C681        C682   1.378       .  A
C681        H684   1.082       .  S
C682        C683   1.382       .  A
C683        H685   1.082       .  S
Cu686       N689   2.083       .  S
Cu687       N697   2.094       .  S
Cu688       N690   2.060       .  S
Cu688       N696   2.060       .  S
N689        C693   1.353       .  A
N689        N690   1.319       .  A
N690        C691   1.338       .  A
C691        C692   1.381       .  A
C691        H694   1.082       .  S
C692        C693   1.390       .  A
C693        H695   1.082       .  S
N696        C700   1.336       .  A
N696        N697   1.320       .  A
N697        C698   1.356       .  A
C698        C699   1.393       .  A
C698        H701   1.082       .  S
C699        C700   1.382       .  A
C700        H702   1.081       .  S
C703        N704   1.357       .  A
C703        N708   1.357       .  A
N704        C705   1.357       .  A
C705        N706   1.358       .  A
N706        C707   1.358       .  A
C707        N708   1.358       .  A
