geometry optimzed in LAMMPS
_audit_creation_date              2020-11-30 
_audit_creation_method            'lammps2cif' 
_symmetry_space_group_name_H-M    'P1' 
_symmetry_Int_Tables_number       1 
_symmetry_cell_setting            triclinic 
loop_ 
_symmetry_equiv_pos_as_xyz 
  x,y,z 
_cell_length_a                    29.29943720379145 
_cell_length_b                    29.287274110417368 
_cell_length_c                    29.14277960784424 
_cell_angle_alpha                 89.87511021224269 
_cell_angle_beta                  90.07787707904698 
_cell_angle_gamma                 120.3851361371642 
loop_ 
_atom_site_label 
_atom_site_type_symbol 
_atom_site_fract_x 
_atom_site_fract_y 
_atom_site_fract_z 
_atom_site_charge 
C1          C  0.24128437  0.48139832  0.25486387     0.03590
C2          C  0.19788940  0.45372664  0.22587327    -0.12560
C3          C  0.17054208  0.39790515  0.22396075     0.01090
C4          C  0.18674976  0.36994737  0.25278042    -0.11090
C5          C  0.23018254  0.39790840  0.28259725     0.03580
C6          C  0.25712377  0.45354975  0.28300590    -0.10510
H7          H  0.18665963  0.47619350  0.20372592     0.09180
H8          H  0.16612089  0.32710343  0.25180041     0.06710
H9          H  0.29070146  0.47580268  0.30554660     0.06550
C10         C  0.43539089  0.28131516  0.48865191     0.03590
C11         C  0.40710706  0.29768415  0.46171452    -0.12560
C12         C  0.35175319  0.27268579  0.46468114     0.01090
C13         C  0.32430390  0.23046067  0.49577356    -0.11090
C14         C  0.35262943  0.21388377  0.02371540     0.03580
C15         C  0.40825086  0.23954431  0.01946895    -0.10510
H16         H  0.42881010  0.33013451  0.43790620     0.09180
H17         H  0.28165149  0.21123499  0.49853219     0.06710
H18         H  0.43104378  0.22812496  0.04097187     0.06550
C19         C  0.25105099  0.47719767  0.50767152     0.03590
C20         C  0.26514311  0.44967460  0.47748608    -0.12560
C21         C  0.23515047  0.39401069  0.47451684     0.01090
C22         C  0.19039952  0.36596160  0.50306601    -0.11090
C23         C  0.17615454  0.39402932  0.03366484     0.03580
C24         C  0.20685025  0.44945604  0.03540965    -0.10510
H25         H  0.29889135  0.47232427  0.45521861     0.09180
H26         H  0.16681179  0.32320846  0.50118132     0.06710
H27         H  0.19655911  0.47172450  0.05863066     0.06550
C28         C  0.86374147  0.29244724  0.25121371     0.03590
C29         C  0.90121115  0.30158430  0.21725540    -0.12560
C30         C  0.93095019  0.27609423  0.21829853     0.01090
C31         C  0.91761343  0.23482154  0.24986140    -0.11090
C32         C  0.87676559  0.22165569  0.28170837     0.03580
C33         C  0.85245394  0.25251870  0.28366568    -0.10510
H34         H  0.90802779  0.32933360  0.18989035     0.09180
H35         H  0.93861916  0.21321838  0.24958470     0.06710
H36         H  0.82467749  0.24516010  0.31105442     0.06550
C37         C  0.86135904  0.28634302  0.50320376     0.03590
C38         C  0.90556069  0.30246522  0.03093487    -0.12560
C39         C  0.93427858  0.27582538  0.03023313     0.01090
C40         C  0.91838811  0.23248996  0.50052218    -0.11090
C41         C  0.87380395  0.21606563  0.47207273     0.03580
C42         C  0.84525447  0.24299508  0.47424194    -0.10510
H43         H  0.91703618  0.33580761  0.05367456     0.09180
H44         H  0.94047292  0.21199760  0.49945613     0.06710
H45         H  0.81114487  0.23136358  0.45240247     0.06550
C46         C  0.74739769  0.40055071  0.50822920     0.03590
C47         C  0.69283267  0.37294292  0.49885533    -0.12560
C48         C  0.66557995  0.39996707  0.48912228     0.01090
C49         C  0.69548948  0.45520576  0.48302526    -0.11090
C50         C  0.74937121  0.48422973  0.49523107     0.03580
C51         C  0.77405969  0.45617525  0.50992428    -0.10510
H52         H  0.67160836  0.33023148  0.49924301     0.09180
H53         H  0.67636747  0.47581970  0.46971695     0.06710
H54         H  0.81471306  0.47753516  0.52149361     0.06550
C55         C  0.86335863  0.71586670  0.49917907     0.03590
C56         C  0.85226425  0.74369382  0.03209809    -0.12560
C57         C  0.87885155  0.79945112  0.03225708     0.01090
C58         C  0.92155741  0.82806601  0.50180566    -0.11090
C59         C  0.93555858  0.80062331  0.47041680     0.03580
C60         C  0.90478931  0.74503806  0.46833079    -0.10510
H61         H  0.82224236  0.72174774  0.05770873     0.09180
H62         H  0.94351407  0.87093077  0.50252665     0.06710
H63         H  0.91306834  0.72426177  0.44195068     0.06550
O64         O  0.10733312  0.39799383  0.17382058    -0.72480
O65         O  0.00030947  0.34213452  0.07612095    -0.73460
O66         O  0.99628714  0.34193587  0.17073674    -0.62080
O67         O  0.11063979  0.39626753  0.07872591    -0.70490
O68         O  0.11098831  0.32073032  0.07852560    -0.70050
O69         O  0.99466159  0.26547686  0.17458151    -0.61300
O70         O  0.99647362  0.26455375  0.07651584    -0.73810
O71         O  0.10932668  0.32342500  0.17717140    -0.72590
Cu72       Cu  0.05372297  0.37184457  0.12475957     1.04560
Cu73       Cu  0.05287649  0.29051881  0.12676781     1.04330
C74         C  0.12658189  0.37113427  0.19055628     0.93710
C75         C  0.97976316  0.29476550  0.06175432     0.92850
C76         C  0.97622647  0.29501807  0.18657650     0.85000
C77         C  0.12987727  0.36833826  0.06446896     0.91270
C78         C  0.24156541  0.90429335  0.24287031     0.03590
C79         C  0.19916065  0.88816293  0.27292832    -0.12560
C80         C  0.17297186  0.91723655  0.27695970     0.01090
C81         C  0.18929696  0.96258828  0.24938867    -0.11090
C82         C  0.23213026  0.97891884  0.21898440     0.03580
C83         C  0.25809275  0.94961018  0.21647420    -0.10510
H84         H  0.18756046  0.85341703  0.29396664     0.09180
H85         H  0.16927417  0.98505459  0.25179331     0.06710
H86         H  0.29099714  0.96134225  0.19313344     0.06550
C87         C  0.35787326  0.79242991  0.24084182     0.03590
C88         C  0.33080716  0.73756161  0.24858641    -0.12560
C89         C  0.35850547  0.71065312  0.25604091     0.01090
C90         C  0.41412287  0.73984187  0.25646036    -0.11090
C91         C  0.44206424  0.79360781  0.24358655     0.03580
C92         C  0.41298920  0.81895871  0.23459860    -0.10510
H93         H  0.28803601  0.71578170  0.24956309     0.09180
H94         H  0.43546035  0.72003774  0.26599694     0.06710
H95         H  0.43318794  0.85991691  0.22370815     0.06550
C96         C  0.67361796  0.91138367  0.24492568     0.03590
C97         C  0.70239139  0.89884146  0.21430192    -0.12560
C98         C  0.75777716  0.92312727  0.21710168     0.01090
C99         C  0.78573494  0.96468311  0.24851046    -0.11090
C100        C  0.75768296  0.97925834  0.27855850     0.03580
C101        C  0.70186264  0.95023381  0.27809918    -0.10510
H102        H  0.68157054  0.86989468  0.18766527     0.09180
H103        H  0.82855388  0.98516792  0.24966162     0.06710
H104        H  0.68019794  0.95831149  0.30372739     0.06550
C105        C  0.43338710  0.29786787  0.24050230     0.03590
C106        C  0.40581916  0.25406583  0.21238704    -0.12560
C107        C  0.35046618  0.22270327  0.21479656     0.01090
C108        C  0.32232080  0.23641003  0.24577802    -0.11090
C109        C  0.35020639  0.28086203  0.27457172     0.03580
C110        C  0.40586439  0.31080834  0.27176978    -0.10510
H111        H  0.42811533  0.24424552  0.18876049     0.09180
H112        H  0.27960519  0.21255240  0.24782119     0.06710
H113        H  0.42845521  0.34413523  0.29443207     0.06550
C114        C  0.74628187  0.40530907  0.25121915     0.03590
C115        C  0.69081536  0.37773759  0.24510168    -0.12560
C116        C  0.66198882  0.40431535  0.24707233     0.01090
C117        C  0.68979489  0.45964216  0.25155516    -0.11090
C118        C  0.74497732  0.48795387  0.25391341     0.03580
C119        C  0.77287095  0.46082537  0.25534823    -0.10510
H120        H  0.67003043  0.33559727  0.23859393     0.09180
H121        H  0.66867523  0.48112911  0.25258525     0.06710
H122        H  0.81535485  0.48349205  0.25991324     0.06550
C123        C  0.85923944  0.71636478  0.25658759     0.03590
C124        C  0.84409408  0.74408956  0.22731452    -0.12560
C125        C  0.87397421  0.79979123  0.22419564     0.01090
C126        C  0.91924060  0.82775896  0.25214665    -0.11090
C127        C  0.93484797  0.79974478  0.28160967     0.03580
C128        C  0.90529099  0.74411451  0.28232101    -0.10510
H129        H  0.80923532  0.72163408  0.20619804     0.09180
H130        H  0.94214025  0.87058275  0.25078701     0.06710
H131        H  0.91708724  0.72178057  0.30407076     0.06550
C132        C  0.24801144  0.90794096  0.50175340     0.03590
C133        C  0.20918232  0.89708847  0.46826403    -0.12560
C134        C  0.17837538  0.92155423  0.46914343     0.01090
C135        C  0.19099778  0.96251818  0.50066154    -0.11090
C136        C  0.23135201  0.97550779  0.03305406     0.03580
C137        C  0.25613905  0.94520139  0.03548728    -0.10510
H138        H  0.20251470  0.86945653  0.44095795     0.09180
H139        H  0.16972979  0.98385682  0.50005591     0.06710
H140        H  0.28271983  0.95160955  0.06371646     0.06550
C141        C  0.36143639  0.79099151  0.50183986     0.03590
C142        C  0.33388891  0.73542978  0.50546398    -0.12560
C143        C  0.35900912  0.70631030  0.49600931     0.01090
C144        C  0.41322685  0.73427587  0.48505437    -0.11090
C145        C  0.44338142  0.78978767  0.48804856     0.03580
C146        C  0.41672272  0.81765984  0.49640892    -0.10510
H147        H  0.29276370  0.71522206  0.51560172     0.09180
H148        H  0.43237139  0.71249551  0.47505847     0.06710
H149        H  0.43897235  0.86026307  0.49824646     0.06550
C150        C  0.67498061  0.90159164  0.49302868     0.03590
C151        C  0.70266163  0.89219656  0.02761387    -0.12560
C152        C  0.75854155  0.91955801  0.02870380     0.01090
C153        C  0.78709467  0.96233304  0.49840255    -0.11090
C154        C  0.75958643  0.97479340  0.46573855     0.03580
C155        C  0.70453978  0.94216403  0.46161576    -0.10510
H156        H  0.68073204  0.86310580  0.05388671     0.09180
H157        H  0.82985681  0.98559969  0.50030978     0.06710
H158        H  0.68463632  0.94900969  0.43344121     0.06550
O159        O  0.88713909  0.15620962  0.42446214    -0.72480
O160        O  0.83205727  0.04301502  0.32419555    -0.73460
O161        O  0.88774429  0.15821438  0.32601470    -0.62080
O162        O  0.83336831  0.04159563  0.42230696    -0.70490
O163        O  0.75712683  0.04050275  0.42092531    -0.70050
O164        O  0.81063926  0.15524672  0.32859970    -0.61300
O165        O  0.75676332  0.04364813  0.32622939    -0.73810
O166        O  0.80914654  0.15135933  0.42359892    -0.72590
Cu167      Cu  0.86319201  0.09996414  0.37418502     1.04560
Cu168      Cu  0.78115837  0.09762990  0.37484111     1.04330
C169        C  0.85615726  0.17205567  0.43896653     0.93710
C170        C  0.78413873  0.02439226  0.31081411     0.92850
C171        C  0.85780459  0.17601868  0.31331830     0.85000
C172        C  0.78534191  0.02158542  0.43538982     0.91270
O173        O  0.80993337  0.79922676  0.17459737    -0.72480
O174        O  0.75720496  0.85405844  0.07686274    -0.73460
O175        O  0.81240169  0.79816263  0.07927416    -0.62080
O176        O  0.75620882  0.85585309  0.17164653    -0.70490
O177        O  0.83203848  0.93225938  0.17369508    -0.70050
O178        O  0.88935172  0.87335474  0.07751908    -0.61300
O179        O  0.83233103  0.93107243  0.07543713    -0.73810
O180        O  0.88754748  0.87359964  0.17636200    -0.72590
Cu181      Cu  0.78173225  0.82457957  0.12557160     1.04560
Cu182      Cu  0.86340549  0.90555552  0.12573487     1.04330
C183        C  0.85666600  0.82620367  0.19063133     0.93710
C184        C  0.78459137  0.90117615  0.06161463     0.92850
C185        C  0.85968183  0.82545592  0.06425614     0.85000
C186        C  0.78391768  0.90312583  0.18648506     0.91270
O187        O  0.22096649  0.03975516  0.07589378    -0.72480
O188        O  0.27699570  0.15675390  0.17091309    -0.73460
O189        O  0.27897888  0.15424911  0.07225260    -0.62080
O190        O  0.22079491  0.04193522  0.17377433    -0.70490
O191        O  0.29859975  0.04631616  0.17412030    -0.70050
O192        O  0.35349456  0.15222014  0.07535482    -0.61300
O193        O  0.35274177  0.15684939  0.17035915    -0.73810
O194        O  0.29742456  0.04139893  0.07968747    -0.72590
Cu195      Cu  0.24642440  0.09824397  0.12320686     1.04560
Cu196      Cu  0.32783685  0.09931114  0.12499731     1.04330
C197        C  0.25042264  0.02118843  0.06411618     0.93710
C198        C  0.32478044  0.17607978  0.18451073     0.92850
C199        C  0.32645478  0.17111477  0.05836359     0.85000
C200        C  0.25112919  0.02527420  0.18833715     0.91270
O201        O  0.11283858  0.85490635  0.42233195    -0.72480
O202        O  0.99976255  0.79860985  0.32878476    -0.73460
O203        O  0.11030628  0.85275898  0.32719538    -0.62080
O204        O  0.00116331  0.79993151  0.42400353    -0.70490
O205        O  0.99979188  0.87490014  0.42489362    -0.70050
O206        O  0.11320014  0.92984427  0.32505519    -0.61300
O207        O  0.99908148  0.87391820  0.32632994    -0.73810
O208        O  0.11503282  0.93169275  0.42360073    -0.72590
Cu209      Cu  0.05599908  0.82430616  0.37569371     1.04560
Cu210      Cu  0.05690515  0.90565584  0.37502008     1.04330
C211        C  0.13311897  0.90220563  0.43707887     0.93710
C212        C  0.98059687  0.82607662  0.31309554     0.92850
C213        C  0.12979437  0.89937207  0.31095955     0.85000
C214        C  0.98144837  0.82721235  0.43881284     0.91270
O215        O  0.21950053  0.32327516  0.32665559    -0.72480
O216        O  0.27720823  0.26334145  0.42155282    -0.73460
O217        O  0.22103945  0.32102532  0.42552342    -0.62080
O218        O  0.27665614  0.26655944  0.32288099    -0.70490
O219        O  0.35129667  0.34393941  0.32511555    -0.70050
O220        O  0.29858538  0.39551290  0.42417289    -0.61300
O221        O  0.35268122  0.34012161  0.41995810    -0.73810
O222        O  0.29633565  0.39858617  0.32917021    -0.72590
Cu223      Cu  0.24547846  0.29046856  0.37413969     1.04560
Cu224      Cu  0.32689656  0.37173162  0.37463462     1.04330
C225        C  0.24928391  0.37134329  0.31380770     0.93710
C226        C  0.32520438  0.29272464  0.43458984     0.92850
C227        C  0.25196590  0.36812442  0.44026860     0.85000
C228        C  0.32402702  0.29747879  0.30869475     0.91270
C229        C  0.52913320  0.79261638  0.00330531    -0.11810
C230        C  0.50272714  0.81777029  0.48537299     0.05200
C231        C  0.53383113  0.86974107  0.46764422    -0.07090
C232        C  0.58895352  0.89654901  0.47325778    -0.07840
C233        C  0.61552009  0.87098061  0.48998794    -0.02390
C234        C  0.58452478  0.81704225  0.00302046     0.04430
N235        N  0.60795198  0.78540253  0.01354152     0.66930
H236        H  0.50664123  0.75282003  0.01684296     0.15830
H237        H  0.61114085  0.93764362  0.46297099     0.15540
N238        N  0.51092235  0.89489451  0.44151831     0.74640
O239        O  0.58857346  0.75077806  0.04478193    -0.38810
O240        O  0.64280497  0.78650564  0.98736593    -0.38760
O241        O  0.53018170  0.94435325  0.44386295    -0.39460
O242        O  0.47605383  0.86894390  0.41163760    -0.39530
C243        C  0.25480779  0.82778986  0.48442863    -0.11810
C244        C  0.27867730  0.87943052  0.50213704     0.05200
C245        C  0.33124707  0.90233653  0.01935136    -0.07090
C246        C  0.35534864  0.87136889  0.02248781    -0.07840
C247        C  0.33228048  0.82084823  0.50247313    -0.02390
C248        C  0.28256567  0.80072781  0.48065374     0.04430
N249        N  0.26276549  0.75683707  0.44964767     0.66930
H250        H  0.21507661  0.80890564  0.47077503     0.15830
H251        H  0.39388365  0.88843717  0.03846962     0.15540
N252        N  0.36252066  0.95768138  0.03019775     0.74640
O253        O  0.21361440  0.72474260  0.44688858    -0.38810
O254        O  0.29252646  0.75765418  0.41797793    -0.38760
O255        O  0.39426172  0.97277198  0.06365375    -0.39460
O256        O  0.36456658  0.99180183  0.50239872    -0.39530
C257        C  0.76955929  0.57257803  0.29227246    -0.11810
C258        C  0.77358280  0.54635812  0.25370733     0.05200
C259        C  0.80465826  0.57601316  0.21580535    -0.07090
C260        C  0.83255914  0.63146120  0.21851078    -0.07840
C261        C  0.82932242  0.65785090  0.25738477    -0.02390
C262        C  0.79694728  0.62809799  0.29485659     0.04430
N263        N  0.78961489  0.65270164  0.33482053     0.66930
H264        H  0.74525498  0.54935801  0.32089945     0.15830
H265        H  0.85644494  0.65455150  0.18964557     0.15540
N266        N  0.80722623  0.55090964  0.17411876     0.74640
O267        O  0.74698556  0.62886148  0.35730230    -0.38810
O268        O  0.82689687  0.69549352  0.35056452    -0.38760
O269        O  0.76769905  0.50829209  0.16054142    -0.39460
O270        O  0.84683306  0.57441374  0.14793586    -0.39530
C271        C  0.51580825  0.30346966  0.26543197    -0.11810
C272        C  0.49159052  0.32636166  0.24066064     0.05200
C273        C  0.52297456  0.37381426  0.21589316    -0.07090
C274        C  0.57836319  0.39701857  0.21722153    -0.07840
C275        C  0.60302605  0.37531115  0.24378463    -0.02390
C276        C  0.57078121  0.32763172  0.26789155     0.04430
N277        N  0.59271061  0.30498010  0.29777004     0.66930
H278        H  0.49157856  0.26712304  0.28439937     0.15830
H279        H  0.60258903  0.43295432  0.19786585     0.15540
N280        N  0.49997854  0.39878860  0.18926227     0.74640
O281        O  0.61292440  0.32771206  0.33527101    -0.38810
O282        O  0.57996165  0.25719139  0.29252142    -0.38760
O283        O  0.45544786  0.39281352  0.19954848    -0.39460
O284        O  0.52617248  0.43061598  0.15739522    -0.39530
C285        C  0.58634414  0.82885291  0.23046770    -0.11810
C286        C  0.61424762  0.88275329  0.24275753     0.05200
C287        C  0.58473106  0.90778479  0.25273161    -0.07090
C288        C  0.52926112  0.87743653  0.25452777    -0.07840
C289        C  0.50140941  0.82386000  0.24123227    -0.02390
C290        C  0.53098328  0.80030928  0.22676000     0.04430
N291        N  0.50610445  0.74890433  0.20569481     0.66930
H292        H  0.60768887  0.80873487  0.22224262     0.15830
H293        H  0.50783467  0.89667381  0.26530868     0.15540
N294        N  0.60980615  0.96416679  0.25845746     0.74640
O295        O  0.47166559  0.73729551  0.17483143    -0.38810
O296        O  0.52357724  0.71801574  0.21309590    -0.38760
O297        O  0.64521407  0.99484730  0.23068756    -0.39460
O298        O  0.59153856  0.98333815  0.28686384    -0.39530
C299        C  0.32072647  0.89849765  0.26054263    -0.11810
C300        C  0.27057450  0.87527400  0.24029874     0.05200
C301        C  0.24878919  0.82480433  0.21976437    -0.07050
C302        C  0.27859984  0.79935055  0.21953248    -0.07840
C303        C  0.32866748  0.82202891  0.24060707    -0.02390
C304        C  0.34932177  0.87203315  0.26226043     0.04430
N305        N  0.39743511  0.89518529  0.28852139     0.66930
H306        H  0.33661307  0.93659873  0.27724688     0.15830
H307        H  0.26267217  0.76168228  0.20218051     0.15540
N308        N  0.19700674  0.79888667  0.19901233     0.74640
O309        O  0.42958576  0.94438568  0.28635154    -0.38810
O310        O  0.40421065  0.86814162  0.31866981    -0.38760
O311        O  0.17923190  0.82535505  0.17973069    -0.39460
O312        O  0.17011528  0.74898293  0.19723031    -0.39530
C313        C  0.75238408  0.57062573  0.00665048    -0.11810
C314        C  0.77892030  0.54365693  0.49422378     0.05200
C315        C  0.83312925  0.57411748  0.48204078    -0.07090
C316        C  0.85967789  0.62943855  0.48615026    -0.07840
C317        C  0.83282254  0.65647265  0.49724546    -0.02390
C318        C  0.77767242  0.62612420  0.00598282     0.04430
N319        N  0.74597564  0.65041975  0.01171707     0.66930
H320        H  0.71095614  0.54843713  0.01584824     0.15830
H321        H  0.90170051  0.65154186  0.47912274     0.15540
N322        N  0.86119207  0.55022342  0.46280956     0.74640
O323        O  0.75082253  0.68591132  0.98412978    -0.38810
O324        O  0.70809188  0.63136741  0.03995301    -0.38760
O325        O  0.84049436  0.51669079  0.43095232    -0.39460
O326        O  0.90920562  0.56793412  0.47281646    -0.39530
C327        C  0.78389787  0.29333879  0.52675400    -0.11810
C328        C  0.83273670  0.31587797  0.50413633     0.05200
C329        C  0.85540402  0.36770651  0.98621745    -0.07090
C330        C  0.82726069  0.39457338  0.98964490    -0.07840
C331        C  0.77773209  0.37205407  0.51164913    -0.02390
C332        C  0.75679324  0.32121369  0.53200895     0.04430
N333        N  0.70978812  0.29833150  0.55978579     0.66930
H334        H  0.76788715  0.25445737  0.54221648     0.15830
H335        H  0.84362470  0.43292451  0.97320046     0.15540
N336        N  0.90632340  0.39345404  0.96396235     0.74640
O337        O  0.67897768  0.24879838  0.56048734    -0.38810
O338        O  0.70177115  0.32682346  0.08725444    -0.38760
O339        O  0.92102693  0.36734192  0.44003091    -0.39460
O340        O  0.93519290  0.44323728  0.96528386    -0.39530
C341        C  0.78320452  0.29855610  0.26884688    -0.11810
C342        C  0.83536444  0.32319618  0.25211213     0.05200
C343        C  0.85885646  0.37650434  0.23674263    -0.07090
C344        C  0.82800502  0.40070274  0.23397766    -0.07840
C345        C  0.77662128  0.37662315  0.25246880    -0.02390
C346        C  0.75568371  0.32592635  0.27266029     0.04430
N347        N  0.70982057  0.30412212  0.30154369     0.66930
H348        H  0.76401859  0.25824987  0.28124925     0.15830
H349        H  0.84557211  0.43984571  0.21904937     0.15540
N350        N  0.91449292  0.40810023  0.22707201     0.74640
O351        O  0.67799902  0.25479052  0.30216523    -0.38810
O352        O  0.70790804  0.33213384  0.33348033    -0.38760
O353        O  0.93064579  0.44168879  0.19494470    -0.39460
O354        O  0.94776380  0.40822477  0.25473803    -0.39530
C355        C  0.35746269  0.62225887  0.51647376    -0.11810
C356        C  0.33021785  0.64705591  0.49947901     0.05200
C357        C  0.27631083  0.61456193  0.98712299    -0.07090
C358        C  0.25159116  0.55973531  0.99199640    -0.07840
C359        C  0.27936401  0.53549774  0.50738433    -0.02390
C360        C  0.33308042  0.56692293  0.51993944     0.04430
N361        N  0.36314487  0.54379065  0.53677589     0.66930
H362        H  0.39797131  0.64611202  0.52806781     0.15830
H363        H  0.21063705  0.53543897  0.98143223     0.15540
N364        N  0.24688037  0.63550337  0.96588225     0.74640
O365        O  0.41270719  0.56771127  0.53143891    -0.38810
O366        O  0.34120683  0.50159246  0.06003260    -0.38760
O367        O  0.25824934  0.65256915  0.42535783    -0.39460
O368        O  0.20239547  0.62410467  0.98208180    -0.39530
C369        C  0.52065635  0.36336523  0.50104568    -0.11810
C370        C  0.49385790  0.31072294  0.48625376     0.05200
C371        C  0.52310242  0.28750782  0.97065957    -0.07090
C372        C  0.57868645  0.31814023  0.97006212    -0.07840
C373        C  0.60615965  0.37056722  0.48674696    -0.02390
C374        C  0.57595292  0.39292609  0.50290357     0.04430
N375        N  0.60005052  0.44407100  0.52411048     0.66930
H376        H  0.49810926  0.38082278  0.51375570     0.15830
H377        H  0.60042808  0.30059662  0.95592514     0.15540
N378        N  0.49744707  0.23338048  0.95528696     0.74640
O379        O  0.58587347  0.47663993  0.51256720    -0.38810
O380        O  0.62925879  0.45365421  0.05888410    -0.38760
O381        O  0.45378256  0.21291916  0.43431222    -0.39460
O382        O  0.52005115  0.20666946  0.96024228    -0.39530
C383        C  0.25263549  0.56697609  0.28070981    -0.11810
C384        C  0.27165507  0.53983806  0.25483932     0.05200
C385        C  0.32104381  0.56848577  0.23242809    -0.07090
C386        C  0.34895105  0.62393023  0.23491695    -0.07840
C387        C  0.32967131  0.65167439  0.25996361    -0.02390
C388        C  0.28152174  0.62244119  0.28457051     0.04430
N389        N  0.26256657  0.64789675  0.31495652     0.66930
H390        H  0.21582623  0.54446064  0.29939424     0.15830
H391        H  0.38533126  0.64570292  0.21558655     0.15540
N392        N  0.34337247  0.54237429  0.20683879     0.74640
O393        O  0.21364677  0.62726340  0.32271816    -0.38810
O394        O  0.29478761  0.68824949  0.33752859    -0.38760
O395        O  0.31407044  0.50009775  0.18522315    -0.39460
O396        O  0.39294710  0.56370123  0.20298199    -0.39530
C397        C  0.24128392  0.48139770  0.75486366     0.03590
C398        C  0.19788896  0.45372597  0.72587310    -0.12560
C399        C  0.17054165  0.39790449  0.72396061     0.01090
C400        C  0.18674944  0.36994675  0.75278029    -0.11090
C401        C  0.23018228  0.39790789  0.78259710     0.03580
C402        C  0.25712342  0.45354923  0.78300569    -0.10510
H403        H  0.18665915  0.47619282  0.70372578     0.09180
H404        H  0.16612061  0.32710282  0.75180032     0.06710
H405        H  0.29070112  0.47580224  0.80554636     0.06550
C406        C  0.43539201  0.28131520  0.98865144     0.03590
C407        C  0.40710844  0.29768476  0.96171436    -0.12560
C408        C  0.35175456  0.27268650  0.96468085     0.01090
C409        C  0.32430510  0.23046120  0.99577308    -0.11090
C410        C  0.35262846  0.21388366  0.52371606     0.03580
C411        C  0.40824991  0.23954457  0.51946973    -0.10510
H412        H  0.42881171  0.33013549  0.93790630     0.09180
H413        H  0.28165269  0.21123568  0.99853171     0.06710
H414        H  0.43104304  0.22812557  0.54097295     0.06550
C415        C  0.25105266  0.47719781  0.00767243     0.03590
C416        C  0.26514465  0.44967483  0.97748675    -0.12560
C417        C  0.23515182  0.39401096  0.97451722     0.01090
C418        C  0.19040084  0.36596179  0.00306635    -0.11090
C419        C  0.17615307  0.39402921  0.53366428     0.03580
C420        C  0.20684856  0.44945597  0.53540874    -0.10510
H421        H  0.29889285  0.47232457  0.95521927     0.09180
H422        H  0.16681292  0.32320869  0.00118138     0.06710
H423        H  0.19655736  0.47172451  0.55862960     0.06550
C424        C  0.86374172  0.29244749  0.75121535     0.03590
C425        C  0.90121115  0.30158461  0.71725676    -0.12560
C426        C  0.93094987  0.27609419  0.71829924     0.01090
C427        C  0.91761305  0.23482119  0.74986177    -0.11090
C428        C  0.87676546  0.22165531  0.78170899     0.03580
C429        C  0.85245410  0.25251857  0.78366693    -0.10510
H430        H  0.90802782  0.32933422  0.68989198     0.09180
H431        H  0.93861854  0.21321780  0.74958460     0.06710
H432        H  0.82467782  0.24515986  0.81105585     0.06550
C433        C  0.86136035  0.28634251  0.00320318     0.03590
C434        C  0.90555932  0.30246555  0.53093549    -0.12560
C435        C  0.93427728  0.27582579  0.53023355     0.01090
C436        C  0.91838931  0.23248932  0.00052200    -0.11090
C437        C  0.87380506  0.21606485  0.97207261     0.03580
C438        C  0.84525569  0.24299440  0.97424164    -0.10510
H439        H  0.91703479  0.33580787  0.55367541     0.09180
H440        H  0.94047405  0.21199687  0.99945610     0.06710
H441        H  0.81114598  0.23136278  0.95240217     0.06550
C442        C  0.74739860  0.40054968  0.00822819     0.03590
C443        C  0.69283349  0.37294172  0.99885442    -0.12560
C444        C  0.66558071  0.39996602  0.98912252     0.01090
C445        C  0.69548979  0.45520480  0.98302629    -0.11090
C446        C  0.74937175  0.48422876  0.99523145     0.03580
C447        C  0.77406044  0.45617416  0.00992371    -0.10510
H448        H  0.67160933  0.33023068  0.99924147     0.09180
H449        H  0.67636712  0.47581857  0.96971940     0.06710
H450        H  0.81471420  0.47753416  0.02149287     0.06550
C451        C  0.86335835  0.71586579  0.99917950     0.03590
C452        C  0.85226455  0.74369473  0.53209766    -0.12560
C453        C  0.87885194  0.79945205  0.53225669     0.01090
C454        C  0.92155694  0.82806512  0.00180597    -0.11090
C455        C  0.93555809  0.80062247  0.97041706     0.03580
C456        C  0.90478891  0.74503721  0.96833110    -0.10510
H457        H  0.82224261  0.72174868  0.55770820     0.09180
H458        H  0.94351353  0.87092987  0.00252694     0.06710
H459        H  0.91306794  0.72426095  0.94195097     0.06550
O460        O  0.10733258  0.39799339  0.67382070    -0.72480
O461        O  0.00030829  0.34213473  0.57612149    -0.73460
O462        O  0.99628661  0.34193583  0.67073732    -0.62080
O463        O  0.11063868  0.39626745  0.57872593    -0.70490
O464        O  0.11098710  0.32073021  0.57852527    -0.70050
O465        O  0.99466082  0.26547669  0.67458163    -0.61300
O466        O  0.99647239  0.26455393  0.57651593    -0.73810
O467        O  0.10932595  0.32342446  0.67717118    -0.72590
Cu468      Cu  0.05372215  0.37184449  0.62475990     1.04560
Cu469      Cu  0.05287549  0.29051865  0.62676771     1.04330
C470        C  0.12658132  0.37113371  0.69055621     0.93710
C471        C  0.97976190  0.29476576  0.56175469     0.92850
C472        C  0.97622591  0.29501798  0.68657695     0.85000
C473        C  0.12987601  0.36833816  0.56446869     0.91270
C474        C  0.24156502  0.90429292  0.74287068     0.03590
C475        C  0.19916027  0.88816253  0.77292869    -0.12560
C476        C  0.17297156  0.91723622  0.77696012     0.01090
C477        C  0.18929674  0.96258799  0.74938915    -0.11090
C478        C  0.23213003  0.97891853  0.71898487     0.03580
C479        C  0.25809245  0.94960979  0.71647462    -0.10510
H480        H  0.18756002  0.85341658  0.79396696     0.09180
H481        H  0.16927399  0.98505434  0.75179381     0.06710
H482        H  0.29099684  0.96134185  0.69313386     0.06550
C483        C  0.35787260  0.79242923  0.74084189     0.03590
C484        C  0.33080650  0.73756092  0.74858641    -0.12560
C485        C  0.35850481  0.71065244  0.75604088     0.01090
C486        C  0.41412221  0.73984119  0.75646035    -0.11090
C487        C  0.44206359  0.79360713  0.74358660     0.03580
C488        C  0.41298855  0.81895805  0.73459868    -0.10510
H489        H  0.28803535  0.71578102  0.74956308     0.09180
H490        H  0.43545968  0.72003704  0.76599691     0.06710
H491        H  0.43318729  0.85991627  0.72370830     0.06550
C492        C  0.67361735  0.91138316  0.74492561     0.03590
C493        C  0.70239076  0.89884099  0.71430178    -0.12560
C494        C  0.75777655  0.92312691  0.71710145     0.01090
C495        C  0.78573432  0.96468267  0.74851025    -0.11090
C496        C  0.75768239  0.97925783  0.77855837     0.03580
C497        C  0.70186207  0.95023332  0.77809910    -0.10510
H498        H  0.68156990  0.86989419  0.68766514     0.09180
H499        H  0.82855327  0.98516751  0.74966137     0.06710
H500        H  0.68019741  0.95831101  0.80372736     0.06550
C501        C  0.43338743  0.29786757  0.74050233     0.03590
C502        C  0.40581936  0.25406536  0.71238728    -0.12560
C503        C  0.35046636  0.22270299  0.71479688     0.01090
C504        C  0.32232113  0.23641002  0.74577821    -0.11090
C505        C  0.35020685  0.28086215  0.77457169     0.03580
C506        C  0.40586484  0.31080836  0.77176968    -0.10510
H507        H  0.42811542  0.24424482  0.68876081     0.09180
H508        H  0.27960551  0.21255250  0.74782144     0.06710
H509        H  0.42845574  0.34413538  0.79443182     0.06550
C510        C  0.74628241  0.40530955  0.75122048     0.03590
C511        C  0.69081594  0.37773780  0.74510269    -0.12560
C512        C  0.66198915  0.40431534  0.74707269     0.01090
C513        C  0.68979498  0.45964219  0.75155517    -0.11090
C514        C  0.74497739  0.48795414  0.75391367     0.03580
C515        C  0.77287124  0.46082589  0.75534914    -0.10510
H516        H  0.67003125  0.33559743  0.73859519     0.09180
H517        H  0.66867516  0.48112899  0.75258480     0.06710
H518        H  0.81535510  0.48349278  0.75991436     0.06550
C519        C  0.85923937  0.71636504  0.75658711     0.03590
C520        C  0.84409413  0.74408990  0.72731401    -0.12560
C521        C  0.87397424  0.79979158  0.72419527     0.01090
C522        C  0.91924052  0.82775924  0.75214648    -0.11090
C523        C  0.93484778  0.79974494  0.78160953     0.03580
C524        C  0.90529081  0.74411469  0.78232066    -0.10510
H525        H  0.80923546  0.72163447  0.70619743     0.09180
H526        H  0.94214015  0.87058303  0.75078698     0.06710
H527        H  0.91708701  0.72178066  0.80407035     0.06550
C528        C  0.24801180  0.90794070  0.00175308     0.03590
C529        C  0.20918213  0.89708773  0.96826411    -0.12560
C530        C  0.17837521  0.92155350  0.96914360     0.01090
C531        C  0.19099800  0.96251779  0.00066148    -0.11090
C532        C  0.23135134  0.97550777  0.53305447     0.03580
C533        C  0.25613821  0.94520123  0.53548785    -0.10510
H534        H  0.20251415  0.86945545  0.94095823     0.09180
H535        H  0.16972996  0.98385637  0.00005592     0.06710
H536        H  0.28271855  0.95160902  0.56371730     0.06550
C537        C  0.36143705  0.79099147  0.00183936     0.03590
C538        C  0.33388964  0.73542975  0.00546386    -0.12560
C539        C  0.35900984  0.70631024  0.99600925     0.01090
C540        C  0.41322744  0.73427574  0.98505396    -0.11090
C541        C  0.44338202  0.78978752  0.98804794     0.03580
C542        C  0.41672337  0.81765977  0.99640817    -0.10510
H543        H  0.29276450  0.71522204  0.01560185     0.09180
H544        H  0.43237191  0.71249531  0.97505805     0.06710
H545        H  0.43897303  0.86026301  0.99824547     0.06550
C546        C  0.67498110  0.90159073  0.99302821     0.03590
C547        C  0.70266131  0.89219734  0.52761411    -0.12560
C548        C  0.75854123  0.91955875  0.52870384     0.01090
C549        C  0.78709511  0.96233221  0.99840246    -0.11090
C550        C  0.75958699  0.97479239  0.96573822     0.03580
C551        C  0.70454039  0.94216293  0.96161519    -0.10510
H552        H  0.68073184  0.86310649  0.55388693     0.09180
H553        H  0.82985724  0.98559895  0.00030987     0.06710
H554        H  0.68463705  0.94900848  0.93344048     0.06550
O555        O  0.88713982  0.15620864  0.92446196    -0.72480
O556        O  0.83205694  0.04301427  0.82419523    -0.73460
O557        O  0.88774420  0.15821361  0.82601460    -0.62080
O558        O  0.83336876  0.04159465  0.92230659    -0.70490
O559        O  0.75712733  0.04050191  0.92092544    -0.70050
O560        O  0.81063925  0.15524609  0.82860020    -0.61300
O561        O  0.75676307  0.04364751  0.82622961    -0.73810
O562        O  0.80914726  0.15135836  0.92359932    -0.72590
Cu563      Cu  0.86319219  0.09996325  0.87418475     1.04560
Cu564      Cu  0.78115862  0.09762914  0.87484145     1.04330
C565        C  0.85615812  0.17205471  0.93896661     0.93710
C566        C  0.78413833  0.02439162  0.81081405     0.92850
C567        C  0.85780450  0.17601806  0.81331861     0.85000
C568        C  0.78534243  0.02158448  0.93538964     0.91270
O569        O  0.80993347  0.79922710  0.67459683    -0.72480
O570        O  0.75720486  0.85405892  0.57686234    -0.73460
O571        O  0.81240193  0.79816341  0.57927360    -0.62080
O572        O  0.75620847  0.85585302  0.67164611    -0.70490
O573        O  0.83203801  0.93225943  0.67369488    -0.70050
O574        O  0.88935190  0.87335558  0.57751875    -0.61300
O575        O  0.83233083  0.93107300  0.57543695    -0.73810
O576        O  0.88754744  0.87360011  0.67636172    -0.72590
Cu577      Cu  0.78173223  0.82457995  0.62557110     1.04560
Cu578      Cu  0.86340536  0.90555601  0.62573463     1.04330
C579        C  0.85666604  0.82620406  0.69063093     0.93710
C580        C  0.78459118  0.90117673  0.56161442     0.92850
C581        C  0.85968211  0.82545679  0.56425570     0.85000
C582        C  0.78391720  0.90312571  0.68648476     0.91270
O583        O  0.22096577  0.03975494  0.57589446    -0.72480
O584        O  0.27699558  0.15675363  0.67091375    -0.73460
O585        O  0.27897813  0.15424886  0.57225334    -0.62080
O586        O  0.22079466  0.04193498  0.67377500    -0.70490
O587        O  0.29859942  0.04631575  0.67412057    -0.70050
O588        O  0.35349386  0.15221997  0.57535523    -0.61300
O589        O  0.35274156  0.15684894  0.67035952    -0.73810
O590        O  0.29742391  0.04139880  0.57968778    -0.72590
Cu591      Cu  0.24642393  0.09824372  0.62320757     1.04560
Cu592      Cu  0.32783638  0.09931084  0.62499764     1.04330
C593        C  0.25042194  0.02118830  0.56411665     0.93710
C594        C  0.32478038  0.17607944  0.68451120     0.92850
C595        C  0.32645399  0.17111460  0.55836420     0.85000
C596        C  0.25112893  0.02527387  0.68833762     0.91270
O597        O  0.11283812  0.85490557  0.92233220    -0.72480
O598        O  0.99976211  0.79860966  0.82878480    -0.73460
O599        O  0.11030584  0.85275855  0.82719562    -0.62080
O600        O  0.00116277  0.79993078  0.92400363    -0.70490
O601        O  0.99979141  0.87489944  0.92489399    -0.70050
O602        O  0.11319985  0.92984392  0.82505565    -0.61300
O603        O  0.99908118  0.87391808  0.82633022    -0.73810
O604        O  0.11503242  0.93169200  0.92360118    -0.72590
Cu605      Cu  0.05599860  0.82430563  0.87569385     1.04560
Cu606      Cu  0.05690478  0.90565536  0.87502049     1.04330
C607        C  0.13311859  0.90220485  0.93707919     0.93710
C608        C  0.98059656  0.82607657  0.81309561     0.92850
C609        C  0.12979402  0.89937170  0.81095991     0.85000
C610        C  0.98144785  0.82721159  0.93881306     0.91270
O611        O  0.21950075  0.32327493  0.82665568    -0.72480
O612        O  0.27720951  0.26334214  0.92155279    -0.73460
O613        O  0.22104046  0.32102565  0.92552358    -0.62080
O614        O  0.27665678  0.26655967  0.82288105    -0.70490
O615        O  0.35129720  0.34393978  0.82511516    -0.70050
O616        O  0.29858633  0.39551329  0.92417271    -0.61300
O617        O  0.35268250  0.34012230  0.91995768    -0.73810
O618        O  0.29633573  0.39858609  0.82916996    -0.72590
Cu619      Cu  0.24547926  0.29046882  0.87413977     1.04560
Cu620      Cu  0.32689727  0.37173199  0.87463429     1.04330
C621        C  0.24928393  0.37134301  0.81380759     0.93710
C622        C  0.32520573  0.29272537  0.93458959     0.92850
C623        C  0.25196699  0.36812477  0.94026869     0.85000
C624        C  0.32402757  0.29747905  0.80869461     0.91270
C625        C  0.52913279  0.79261681  0.50330576    -0.11810
C626        C  0.50272773  0.81776998  0.98537240     0.05200
C627        C  0.53383187  0.86974067  0.96764352    -0.07090
C628        C  0.58895425  0.89654843  0.97325708    -0.07840
C629        C  0.61552061  0.87097989  0.98998738    -0.02390
C630        C  0.58452440  0.81704289  0.50302091     0.04430
N631        N  0.60795178  0.78540331  0.51354184     0.66930
H632        H  0.50664093  0.75282039  0.51684327     0.15830
H633        H  0.61114173  0.93764300  0.96297020     0.15540
N634        N  0.51092325  0.89489420  0.94151751     0.74640
O635        O  0.58857346  0.75077886  0.54478228    -0.38810
O636        O  0.64280469  0.78650650  0.48736610    -0.38760
O637        O  0.53018281  0.94435298  0.94386200    -0.39460
O638        O  0.47605469  0.86894361  0.91163683    -0.39530
C639        C  0.25480805  0.82778944  0.98442868    -0.11810
C640        C  0.27867776  0.87943034  0.00213659     0.05200
C641        C  0.33124633  0.90233640  0.51935242    -0.07090
C642        C  0.35534780  0.87136866  0.52248884    -0.07840
C643        C  0.33228109  0.82084817  0.00247263    -0.02390
C644        C  0.28256594  0.80072739  0.98065377     0.04430
N645        N  0.26276533  0.75683621  0.94964816     0.66930
H646        H  0.21507668  0.80890499  0.97077551     0.15830
H647        H  0.39388258  0.88843666  0.53847105     0.15540
N648        N  0.36251981  0.95768108  0.53019947     0.74640
O649        O  0.21361422  0.72474157  0.94688977    -0.38810
O650        O  0.29252579  0.75765297  0.91797810    -0.38760
O651        O  0.39426025  0.97277111  0.56365591    -0.39460
O652        O  0.36456687  0.99180168  0.00239676    -0.39530
C653        C  0.76955929  0.57257847  0.79227230    -0.11810
C654        C  0.77358263  0.54635837  0.75370724     0.05200
C655        C  0.80465782  0.57601322  0.71580505    -0.07090
C656        C  0.83255873  0.63146130  0.71851027    -0.07840
C657        C  0.82932229  0.65785116  0.75738427    -0.02390
C658        C  0.79694736  0.62809841  0.79485619     0.04430
N659        N  0.78961527  0.65270232  0.83482003     0.66930
H660        H  0.74525515  0.54935867  0.82089945     0.15830
H661        H  0.85644436  0.65455147  0.68964495     0.15540
N662        N  0.80722555  0.55090948  0.67411850     0.74640
O663        O  0.74698495  0.62886348  0.85730057    -0.38810
O664        O  0.82689854  0.69549232  0.85056561    -0.38760
O665        O  0.76769848  0.50829157  0.66054163    -0.39460
O666        O  0.84683198  0.57441365  0.64793519    -0.39530
C667        C  0.51580858  0.30346947  0.76543218    -0.11810
C668        C  0.49159085  0.32636129  0.74066058     0.05200
C669        C  0.52297488  0.37381365  0.71589281    -0.07090
C670        C  0.57836352  0.39701803  0.71722128    -0.07840
C671        C  0.60302639  0.37531089  0.74378472    -0.02390
C672        C  0.57078154  0.32763156  0.76789178     0.04430
N673        N  0.59271091  0.30498000  0.79777038     0.66930
H674        H  0.49157890  0.26712298  0.78439974     0.15830
H675        H  0.60258934  0.43295364  0.69786542     0.15540
N676        N  0.49997885  0.39878770  0.68926153     0.74640
O677        O  0.61292354  0.32771137  0.83527181    -0.38810
O678        O  0.57996273  0.25719158  0.79252125    -0.38760
O679        O  0.45544810  0.39281262  0.69954748    -0.39460
O680        O  0.52617281  0.43061479  0.65739431    -0.39530
C681        C  0.58634353  0.82885234  0.73046770    -0.11810
C682        C  0.61424699  0.88275271  0.74275753     0.05200
C683        C  0.58473039  0.90778417  0.75273168    -0.07090
C684        C  0.52926046  0.87743586  0.75452786    -0.07840
C685        C  0.50140876  0.82385934  0.74123233    -0.02390
C686        C  0.53098266  0.80030866  0.72676005     0.04430
N687        N  0.50610386  0.74890371  0.70569486     0.66930
H688        H  0.60768828  0.80873433  0.72224258     0.15830
H689        H  0.50783399  0.89667311  0.76530881     0.15540
N690        N  0.60980544  0.96416616  0.75845754     0.74640
O691        O  0.47166502  0.73729488  0.67483146    -0.38810
O692        O  0.52357665  0.71801512  0.71309598    -0.38760
O693        O  0.64521329  0.99484669  0.73068761    -0.39460
O694        O  0.59153782  0.98333747  0.78686393    -0.39530
C695        C  0.32072593  0.89849697  0.76054303    -0.11810
C696        C  0.27057401  0.87527347  0.74029906     0.05200
C697        C  0.24878865  0.82480385  0.71976458    -0.07050
C698        C  0.27859924  0.79935000  0.71953262    -0.07840
C699        C  0.32866685  0.82202825  0.74060726    -0.02390
C700        C  0.34932114  0.87203239  0.76226079     0.04430
N701        N  0.39743440  0.89518433  0.78852185     0.66930
H702        H  0.33661254  0.93659800  0.77724739     0.15830
H703        H  0.26267155  0.76168177  0.70218058     0.15540
N704        N  0.19700620  0.79888628  0.69901253     0.74640
O705        O  0.42958509  0.94438473  0.78635223    -0.38810
O706        O  0.40420981  0.86814046  0.81867016    -0.38760
O707        O  0.17923139  0.82535476  0.67973102    -0.39460
O708        O  0.17011471  0.74898255  0.69723039    -0.39530
C709        C  0.75238370  0.57062683  0.50664940    -0.11810
C710        C  0.77892068  0.54365597  0.99422449     0.05200
C711        C  0.83312955  0.57411676  0.98204115    -0.07090
C712        C  0.85967793  0.62943779  0.98615064    -0.07840
C713        C  0.83282251  0.65647173  0.99724603    -0.02390
C714        C  0.77767240  0.62612536  0.50598191     0.04430
N715        N  0.74597583  0.65042116  0.51171617     0.66930
H716        H  0.71095599  0.54843854  0.51584668     0.15830
H717        H  0.90170079  0.65154139  0.97912284     0.15540
N718        N  0.86119241  0.55022294  0.96280954     0.74640
O719        O  0.75082305  0.68591294  0.48412897    -0.38810
O720        O  0.70809210  0.63136901  0.53995212    -0.38760
O721        O  0.84049475  0.51669064  0.93095207    -0.39460
O722        O  0.90920600  0.56793366  0.97281633    -0.39530
C723        C  0.78389914  0.29333804  0.02675346    -0.11810
C724        C  0.83273796  0.31587739  0.00413557     0.05200
C725        C  0.85540308  0.36770743  0.48621864    -0.07090
C726        C  0.82725982  0.39457420  0.48964637    -0.07840
C727        C  0.77773299  0.37205305  0.01164797    -0.02390
C728        C  0.75679442  0.32121299  0.03200809     0.04430
N729        N  0.70978935  0.29833079  0.05978504     0.66930
H730        H  0.76788903  0.25445773  0.04221584     0.15830
H731        H  0.84362455  0.43292661  0.47320168     0.15540
N732        N  0.90632257  0.39345494  0.46396381     0.74640
O733        O  0.67897914  0.24879770  0.06048698    -0.38810
O734        O  0.70176991  0.32682399  0.58725533    -0.38760
O735        O  0.92102780  0.36734076  0.94002977    -0.39460
O736        O  0.93519229  0.44323822  0.46528588    -0.39530
C737        C  0.78320515  0.29855682  0.76884925    -0.11810
C738        C  0.83536499  0.32319671  0.75211433     0.05200
C739        C  0.85885721  0.37650494  0.73674498    -0.07090
C740        C  0.82800584  0.40070341  0.73397985    -0.07840
C741        C  0.77662201  0.37662385  0.75247078    -0.02390
C742        C  0.75568444  0.32592719  0.77266257     0.04430
N743        N  0.70982132  0.30412320  0.80154601     0.66930
H744        H  0.76401916  0.25825062  0.78125168     0.15830
H745        H  0.84557301  0.43984636  0.71905152     0.15540
N746        N  0.91449375  0.40810076  0.72707464     0.74640
O747        O  0.67800008  0.25479154  0.80216827    -0.38810
O748        O  0.70790846  0.33213545  0.83348200    -0.38760
O749        O  0.93064696  0.44168982  0.69494771    -0.39460
O750        O  0.94776438  0.40822465  0.75474056    -0.39530
C751        C  0.35746389  0.62225919  0.01647425    -0.11810
C752        C  0.33021877  0.64705591  0.99947941     0.05200
C753        C  0.27630991  0.61456216  0.48712238    -0.07090
C754        C  0.25159000  0.55973549  0.49199556    -0.07840
C755        C  0.27936545  0.53549785  0.00738518    -0.02390
C756        C  0.33308188  0.56692329  0.01994011     0.04430
N757        N  0.36314665  0.54379131  0.03677650     0.66930
H758        H  0.39797255  0.64611257  0.02806814     0.15830
H759        H  0.21063591  0.53543935  0.48143127     0.15540
N760        N  0.24687970  0.63550393  0.46588173     0.74640
O761        O  0.41270898  0.56771224  0.03143951    -0.38810
O762        O  0.34120480  0.50159188  0.56003210    -0.38760
O763        O  0.25824972  0.65256823  0.92535823    -0.39460
O764        O  0.20239477  0.62410528  0.48208117    -0.39530
C765        C  0.52065750  0.36336360  0.00104956    -0.11810
C766        C  0.49385900  0.31072272  0.98625360     0.05200
C767        C  0.52310158  0.28750693  0.47066300    -0.07090
C768        C  0.57868542  0.31813973  0.47006482    -0.07840
C769        C  0.60616054  0.37056626  0.98674776    -0.02390
C770        C  0.57595418  0.39292389  0.00290785     0.04430
N771        N  0.60005218  0.44406680  0.02411866     0.66930
H772        H  0.49811096  0.38081970  0.01376191     0.15830
H773        H  0.60042737  0.30059445  0.45592956     0.15540
N774        N  0.49744638  0.23337814  0.45529449     0.74640
O775        O  0.58587371  0.47663621  0.01258104    -0.38810
O776        O  0.62925473  0.45366107  0.55887799    -0.38760
O777        O  0.45378249  0.21292326  0.93430594    -0.39460
O778        O  0.52005008  0.20666733  0.46025480    -0.39530
C779        C  0.25263489  0.56697536  0.78070963    -0.11810
C780        C  0.27165452  0.53983742  0.75483910     0.05200
C781        C  0.32104322  0.56848518  0.73242782    -0.07090
C782        C  0.34895042  0.62392963  0.73491674    -0.07840
C783        C  0.32967066  0.65167371  0.75996349    -0.02390
C784        C  0.28152108  0.62244045  0.78457038     0.04430
N785        N  0.26256585  0.64789593  0.81495641     0.66930
H786        H  0.21582565  0.54445986  0.79939407     0.15830
H787        H  0.38533061  0.64570237  0.71558633     0.15540
N788        N  0.34337188  0.54237376  0.70683841     0.74640
O789        O  0.21364603  0.62726252  0.82271803    -0.38810
O790        O  0.29478684  0.68824862  0.83752855    -0.38760
O791        O  0.31406984  0.50009723  0.68522277    -0.39460
O792        O  0.39294650  0.56370075  0.70298153    -0.39530
loop_ 
_geom_bond_atom_site_label_1 
_geom_bond_atom_site_label_2 
_geom_bond_distance 
_geom_bond_site_symmetry_2 
_ccdc_geom_bond_type 
C1            C2   1.395       .  A
C1            C6   1.390       .  A
C1          C384   1.477       .  S
C2            C3   1.412       .  A
C2            H7   1.084       .  S
C3            C4   1.411       .  A
C3           C74   1.483       .  S
C4            C5   1.411       .  A
C4            H8   1.083       .  S
C5            C6   1.406       .  A
C5          C225   1.477       .  S
C6            H9   1.084       .  S
C10          C11   1.390       .  A
C10         C411   1.396       .  A
C10         C370   1.479       .  S
C11          C12   1.405       .  A
C11          H16   1.084       .  S
C12          C13   1.410       .  A
C12         C226   1.475       .  S
C13         C410   1.411       .  A
C13          H17   1.083       .  S
C14          C15   1.413       .  A
C14         C409   1.411   1_554  A
C14         C199   1.484       .  S
C15         C406   1.396   1_554  A
C15          H18   1.084       .  S
C19          C20   1.391       .  A
C19         C420   1.388       .  A
C19         C359   1.473       .  S
C20          C21   1.410       .  A
C20          H25   1.084       .  S
C21          C22   1.413       .  A
C21         C227   1.482       .  S
C22         C419   1.413       .  A
C22          H26   1.083       .  S
C23          C24   1.404       .  A
C23         C418   1.413       .  A
C23          C77   1.476       .  S
C24         C415   1.388       .  A
C24          H27   1.084       .  S
C28          C29   1.400       .  A
C28          C33   1.406       .  A
C28         C342   1.504       .  S
C29          C30   1.405       .  A
C29          H34   1.082       .  S
C30          C31   1.406       .  A
C30          C76   1.476       .  S
C31          C32   1.406       .  A
C31          H35   1.083       .  S
C32          C33   1.407       .  A
C32         C171   1.479       .  S
C33          H36   1.081       .  S
C37          C42   1.394       .  A
C37         C434   1.390       .  A
C37         C328   1.479       .  S
C38          C39   1.408       .  A
C38         C433   1.390       .  A
C38          H43   1.084       .  S
C39         C436   1.408       .  A
C39          C75   1.476       .  S
C40          C41   1.410       .  A
C40         C435   1.408       .  A
C40          H44   1.083       .  S
C41          C42   1.412       .  A
C41         C169   1.480       .  S
C42          H45   1.084       .  S
C46          C47   1.406       .  A
C46          C51   1.407       .  A
C46         C331   1.499       .  S
C47          C48   1.408       .  A
C47          H52   1.079       .  S
C48          C49   1.408       .  A
C48         C373   1.504       .  S
C49          C50   1.408       .  A
C49          H53   1.081       .  S
C50          C51   1.407       .  A
C50         C314   1.502       .  S
C51          H54   1.082       .  S
C55          C60   1.401       .  A
C55         C452   1.401       .  A
C55         C317   1.502       .  S
C56          C57   1.409       .  A
C56         C451   1.401   1_554  A
C56          H61   1.082       .  S
C57         C454   1.412       .  A
C57         C185   1.484       .  S
C58          C59   1.410       .  A
C58         C453   1.412       .  A
C58          H62   1.083       .  S
C59          C60   1.408       .  A
C59         C214   1.484       .  S
C60          H63   1.083       .  S
O64         Cu72   1.970       .  S
O64          C74   1.273       .  A
O65         Cu72   1.959       .  S
O65          C75   1.273   1_455  A
O66         Cu72   1.976   1_655  S
O66          C76   1.276       .  A
O67         Cu72   1.972       .  S
O67          C77   1.276       .  A
O68         Cu73   2.034       .  S
O68          C77   1.279       .  A
O69         Cu73   2.031   1_655  S
O69          C76   1.279       .  A
O70         Cu73   2.045   1_655  S
O70          C75   1.282       .  A
O71         Cu73   2.052       .  S
O71          C74   1.283       .  A
Cu72        Cu73   2.370       .  S
C78          C79   1.393       .  A
C78          C83   1.391       .  A
C78         C300   1.477       .  S
C79          C80   1.410       .  A
C79          H84   1.084       .  S
C80          C81   1.411       .  A
C80         C213   1.479       .  S
C81          C82   1.408       .  A
C81          H85   1.083       .  S
C82          C83   1.408       .  A
C82         C200   1.477   1_565  S
C83          H86   1.084       .  S
C87          C88   1.404       .  A
C87          C92   1.406       .  A
C87         C303   1.495       .  S
C88          C89   1.405       .  A
C88          H93   1.081       .  S
C89          C90   1.406       .  A
C89         C387   1.495       .  S
C90          C91   1.409       .  A
C90          H94   1.082       .  S
C91          C92   1.409       .  A
C91         C289   1.502       .  S
C92          H95   1.082       .  S
C96          C97   1.400       .  A
C96         C101   1.401       .  A
C96         C286   1.502       .  S
C97          C98   1.406       .  A
C97         H102   1.083       .  S
C98          C99   1.409       .  A
C98         C186   1.478       .  S
C99         C100   1.408       .  A
C99         H103   1.083       .  S
C100        C101   1.411       .  A
C100        C170   1.483   1_565  S
C101        H104   1.082       .  S
C105        C106   1.387       .  A
C105        C110   1.392       .  A
C105        C272   1.471       .  S
C106        C107   1.404       .  A
C106        H111   1.084       .  S
C107        C108   1.412       .  A
C107        C198   1.474       .  S
C108        C109   1.412       .  A
C108        H112   1.083       .  S
C109        C110   1.410       .  A
C109        C228   1.482       .  S
C110        H113   1.084       .  S
C114        C115   1.413       .  A
C114        C119   1.409       .  A
C114        C345   1.501       .  S
C115        C116   1.410       .  A
C115        H120   1.082       .  S
C116        C117   1.404       .  A
C116        C275   1.494       .  S
C117        C118   1.396       .  A
C117        H121   1.083       .  S
C118        C119   1.399       .  A
C118        C258   1.476       .  S
C119        H122   1.083       .  S
C123        C124   1.394       .  A
C123        C128   1.391       .  A
C123        C261   1.478       .  S
C124        C125   1.411       .  A
C124        H129   1.084       .  S
C125        C126   1.412       .  A
C125        C183   1.485       .  S
C126        C127   1.412       .  A
C126        H130   1.083       .  S
C127        C128   1.406       .  A
C127        C212   1.479       .  S
C128        H131   1.084       .  S
C132        C133   1.407       .  A
C132        C533   1.398       .  A
C132        C244   1.504       .  S
C133        C134   1.408       .  A
C133        H138   1.081       .  S
C134        C135   1.405       .  A
C134        C211   1.480       .  S
C135        C532   1.406       .  A
C135        H139   1.083       .  S
C136        C137   1.404       .  A
C136        C531   1.406       .  A
C136        C197   1.473   1_565  S
C137        C528   1.398       .  A
C137        H140   1.081       .  S
C141        C142   1.408       .  A
C141        C146   1.407       .  A
C141        C247   1.500       .  S
C142        C143   1.408       .  A
C142        H147   1.081       .  S
C143        C144   1.407       .  A
C143        C356   1.501       .  S
C144        C145   1.407       .  A
C144        H148   1.081       .  S
C145        C146   1.408       .  A
C145        C230   1.503       .  S
C146        H149   1.078       .  S
C150        C155   1.399       .  A
C150        C547   1.404       .  A
C150        C233   1.506       .  S
C151        C152   1.413       .  A
C151        C546   1.404   1_554  A
C151        H156   1.082       .  S
C152        C549   1.409   1_554  A
C152        C184   1.484       .  S
C153        C154   1.408       .  A
C153        C548   1.409       .  A
C153        H157   1.083       .  S
C154        C155   1.403       .  A
C154        C172   1.477   1_565  S
C155        H158   1.082       .  S
O159       Cu167   2.047       .  S
O159        C169   1.283       .  A
O160       Cu167   2.050       .  S
O160        C170   1.283       .  A
O161       Cu167   2.037       .  S
O161        C171   1.280       .  A
O162       Cu167   2.033       .  S
O162        C172   1.279       .  A
O163       Cu168   1.975       .  S
O163        C172   1.276       .  A
O164       Cu168   1.982       .  S
O164        C171   1.276       .  A
O165       Cu168   1.970       .  S
O165        C170   1.274       .  A
O166       Cu168   1.967       .  S
O166        C169   1.273       .  A
Cu167      Cu168   2.370       .  S
O173       Cu181   1.972       .  S
O173        C183   1.274       .  A
O174       Cu181   1.974       .  S
O174        C184   1.274       .  A
O175       Cu181   1.984       .  S
O175        C185   1.276       .  A
O176       Cu181   1.975       .  S
O176        C186   1.276       .  A
O177       Cu182   2.036       .  S
O177        C186   1.280       .  A
O178       Cu182   2.043       .  S
O178        C185   1.281       .  A
O179       Cu182   2.053       .  S
O179        C184   1.283       .  A
O180       Cu182   2.053       .  S
O180        C183   1.283       .  A
Cu181      Cu182   2.368       .  S
O187       Cu195   2.027       .  S
O187        C197   1.279       .  A
O188       Cu195   2.031       .  S
O188        C198   1.279       .  A
O189       Cu195   2.053       .  S
O189        C199   1.284       .  A
O190       Cu195   2.048       .  S
O190        C200   1.283       .  A
O191       Cu196   1.960       .  S
O191        C200   1.273       .  A
O192       Cu196   1.968       .  S
O192        C199   1.273       .  A
O193       Cu196   1.971       .  S
O193        C198   1.276       .  A
O194       Cu196   1.973       .  S
O194        C197   1.276       .  A
Cu195      Cu196   2.370       .  S
O201       Cu209   1.978       .  S
O201        C211   1.275       .  A
O202       Cu209   1.973   1_655  S
O202        C212   1.275       .  A
O203       Cu209   1.971       .  S
O203        C213   1.274       .  A
O204       Cu209   1.979       .  S
O204        C214   1.276   1_455  A
O205       Cu210   2.049   1_655  S
O205        C214   1.282       .  A
O206       Cu210   2.040       .  S
O206        C213   1.282       .  A
O207       Cu210   2.038   1_655  S
O207        C212   1.280       .  A
O208       Cu210   2.042       .  S
O208        C211   1.281       .  A
Cu209      Cu210   2.369       .  S
O215       Cu223   2.037       .  S
O215        C225   1.280       .  A
O216       Cu223   2.036       .  S
O216        C226   1.280       .  A
O217       Cu223   2.053       .  S
O217        C227   1.283       .  A
O218       Cu223   2.052       .  S
O218        C228   1.283       .  A
O219       Cu224   1.963       .  S
O219        C228   1.273       .  A
O220       Cu224   1.962       .  S
O220        C227   1.273       .  A
O221       Cu224   1.968       .  S
O221        C226   1.275       .  A
O222       Cu224   1.970       .  S
O222        C225   1.275       .  A
Cu223      Cu224   2.369       .  S
C229        C234   1.404       .  A
C229        C626   1.410   1_554  A
C229        H236   1.082       .  S
C230        C231   1.417       .  A
C230        C625   1.410       .  A
C231        C232   1.403       .  A
C231        N238   1.439       .  S
C232        C233   1.411       .  A
C232        H237   1.081       .  S
C233        C630   1.418       .  A
C234        C629   1.418   1_554  A
C234        N235   1.437       .  S
N235        O239   1.263       .  A
N235        O240   1.263   1_554  A
N238        O241   1.263       .  A
N238        O242   1.263       .  A
C243        C244   1.405       .  A
C243        C248   1.398       .  A
C243        H250   1.081       .  S
C244        C641   1.424       .  A
C245        C246   1.406       .  A
C245        C640   1.424       .  A
C245        N252   1.437       .  S
C246        C643   1.406       .  A
C246        H251   1.082       .  S
C247        C248   1.416       .  A
C247        C642   1.406       .  A
C248        N249   1.433       .  S
N249        O253   1.263       .  A
N249        O254   1.262       .  A
N252        O255   1.263       .  A
N252        O652   1.263       .  A
O256        N648   1.263       .  A
C257        C258   1.401       .  A
C257        C262   1.405       .  A
C257        H264   1.084       .  S
C258        C259   1.415       .  A
C259        C260   1.403       .  A
C259        N266   1.443       .  S
C260        C261   1.403       .  A
C260        H265   1.084       .  S
C261        C262   1.419       .  A
C262        N263   1.443       .  S
N263        O267   1.263       .  A
N263        O268   1.261       .  A
N266        O269   1.263       .  A
N266        O270   1.263       .  A
C271        C272   1.397       .  A
C271        C276   1.395       .  A
C271        H278   1.085       .  S
C272        C273   1.415       .  A
C273        C274   1.408       .  A
C273        N280   1.444       .  S
C274        C275   1.409       .  A
C274        H279   1.083       .  S
C275        C276   1.414       .  A
C276        N277   1.428       .  S
N277        O281   1.261       .  A
N277        O282   1.262       .  A
N280        O283   1.262       .  A
N280        O284   1.263       .  A
C285        C286   1.409       .  A
C285        C290   1.403       .  A
C285        H292   1.081       .  S
C286        C287   1.419       .  A
C287        C288   1.405       .  A
C287        N294   1.438       .  S
C288        C289   1.409       .  A
C288        H293   1.081       .  S
C289        C290   1.418       .  A
C290        N291   1.438       .  S
N291        O295   1.263       .  A
N291        O296   1.263       .  A
N294        O297   1.263       .  A
N294        O298   1.263       .  A
C299        C300   1.399       .  A
C299        C304   1.401       .  A
C299        H306   1.084       .  S
C300        C301   1.414       .  A
C301        C302   1.406       .  A
C301        N308   1.442       .  S
C302        C303   1.409       .  A
C302        H307   1.082       .  S
C303        C304   1.420       .  A
C304        N305   1.437       .  S
N305        O309   1.263       .  A
N305        O310   1.263       .  A
N308        O311   1.262       .  A
N308        O312   1.263       .  A
C313        C318   1.405       .  A
C313        C710   1.408   1_554  A
C313        H320   1.082       .  S
C314        C315   1.418       .  A
C314        C709   1.408       .  A
C315        C316   1.404       .  A
C315        N322   1.437       .  S
C316        C317   1.408       .  A
C316        H321   1.082       .  S
C317        C714   1.419       .  A
C318        C713   1.419   1_554  A
C318        N319   1.437       .  S
N319        O323   1.263   1_554  A
N319        O324   1.263       .  A
N322        O325   1.263       .  A
N322        O326   1.263       .  A
C327        C328   1.401       .  A
C327        C332   1.406       .  A
C327        H334   1.085       .  S
C328        C725   1.413       .  A
C329        C330   1.402       .  A
C329        C724   1.413   1_556  A
C329        N336   1.441       .  S
C330        C727   1.409   1_556  A
C330        H335   1.084       .  S
C331        C332   1.421       .  A
C331        C726   1.409       .  A
C332        N333   1.438       .  S
N333        O337   1.263       .  A
N333        O734   1.263       .  A
N336        O340   1.263       .  A
N336        O735   1.262       .  A
O338        N729   1.263       .  A
O339        N732   1.262       .  A
C341        C342   1.407       .  A
C341        C346   1.400       .  A
C341        H348   1.081       .  S
C342        C343   1.422       .  A
C343        C344   1.405       .  A
C343        N350   1.438       .  S
C344        C345   1.407       .  A
C344        H349   1.082       .  S
C345        C346   1.415       .  A
C346        N347   1.433       .  S
N347        O351   1.263       .  A
N347        O352   1.262       .  A
N350        O353   1.263       .  A
N350        O354   1.263       .  A
C355        C356   1.412       .  A
C355        C360   1.405       .  A
C355        H362   1.083       .  S
C356        C753   1.418       .  A
C357        C358   1.395       .  A
C357        C752   1.418       .  A
C357        N364   1.426       .  S
C358        C755   1.396   1_556  A
C358        H363   1.085       .  S
C359        C360   1.412       .  A
C359        C754   1.396       .  A
C360        N361   1.441       .  S
N361        O365   1.263       .  A
N361        O762   1.262       .  A
N364        O368   1.263       .  A
N364        O763   1.259       .  A
O366        N757   1.262       .  A
O367        N760   1.259       .  A
C369        C370   1.399       .  A
C369        C374   1.399       .  A
C369        H376   1.085       .  S
C370        C767   1.412       .  A
C371        C372   1.407       .  A
C371        C766   1.412       .  A
C371        N378   1.441       .  S
C372        C769   1.412       .  A
C372        H377   1.083       .  S
C373        C374   1.422       .  A
C373        C768   1.412       .  A
C374        N375   1.434       .  S
N375        O379   1.263       .  A
N375        O776   1.262       .  A
N378        O382   1.263       .  A
N378        O777   1.262       .  A
O380        N771   1.262       .  A
O381        N774   1.262       .  A
C383        C384   1.401       .  A
C383        C388   1.406       .  A
C383        H390   1.084       .  S
C384        C385   1.413       .  A
C385        C386   1.403       .  A
C385        N392   1.442       .  S
C386        C387   1.407       .  A
C386        H391   1.083       .  S
C387        C388   1.420       .  A
C388        N389   1.439       .  S
N389        O393   1.263       .  A
N389        O394   1.262       .  A
N392        O395   1.262       .  A
N392        O396   1.263       .  A
C397        C398   1.395       .  A
C397        C402   1.390       .  A
C397        C780   1.477       .  S
C398        C399   1.412       .  A
C398        H403   1.084       .  S
C399        C400   1.411       .  A
C399        C470   1.483       .  S
C400        C401   1.411       .  A
C400        H404   1.083       .  S
C401        C402   1.406       .  A
C401        C621   1.477       .  S
C402        H405   1.084       .  S
C406        C407   1.390       .  A
C406        C766   1.479       .  S
C407        C408   1.405       .  A
C407        H412   1.084       .  S
C408        C409   1.410       .  A
C408        C622   1.475       .  S
C409        H413   1.083       .  S
C410        C411   1.413       .  A
C410        C595   1.484       .  S
C411        H414   1.084       .  S
C415        C416   1.391   1_554  A
C415        C755   1.473       .  S
C416        C417   1.410       .  A
C416        H421   1.084       .  S
C417        C418   1.413   1_556  A
C417        C623   1.482       .  S
C418        H422   1.083       .  S
C419        C420   1.404       .  A
C419        C473   1.476       .  S
C420        H423   1.084       .  S
C424        C425   1.400       .  A
C424        C429   1.406       .  A
C424        C738   1.504       .  S
C425        C426   1.405       .  A
C425        H430   1.082       .  S
C426        C427   1.406       .  A
C426        C472   1.476       .  S
C427        C428   1.406       .  A
C427        H431   1.083       .  S
C428        C429   1.407       .  A
C428        C567   1.479       .  S
C429        H432   1.081       .  S
C433        C438   1.394   1_554  A
C433        C724   1.479       .  S
C434        C435   1.408       .  A
C434        H439   1.084       .  S
C435        C471   1.476       .  S
C436        C437   1.410   1_554  A
C436        H440   1.083   1_554  S
C437        C438   1.412       .  A
C437        C565   1.480       .  S
C438        H441   1.084       .  S
C442        C443   1.406   1_554  A
C442        C447   1.407       .  A
C442        C727   1.499       .  S
C443        C444   1.408       .  A
C443        H448   1.079       .  S
C444        C445   1.408       .  A
C444        C769   1.504       .  S
C445        C446   1.408       .  A
C445        H449   1.081       .  S
C446        C447   1.407   1_556  A
C446        C710   1.502       .  S
C447        H450   1.082       .  S
C451        C456   1.401       .  A
C451        C713   1.502       .  S
C452        C453   1.409       .  A
C452        H457   1.082       .  S
C453        C581   1.484       .  S
C454        C455   1.410   1_554  A
C454        H458   1.083       .  S
C455        C456   1.408       .  A
C455        C610   1.484       .  S
C456        H459   1.083       .  S
O460       Cu468   1.970       .  S
O460        C470   1.273       .  A
O461       Cu468   1.959       .  S
O461        C471   1.273   1_455  A
O462       Cu468   1.976   1_655  S
O462        C472   1.276       .  A
O463       Cu468   1.972       .  S
O463        C473   1.276       .  A
O464       Cu469   2.034       .  S
O464        C473   1.279       .  A
O465       Cu469   2.031   1_655  S
O465        C472   1.279       .  A
O466       Cu469   2.045   1_655  S
O466        C471   1.282       .  A
O467       Cu469   2.052       .  S
O467        C470   1.283       .  A
Cu468      Cu469   2.370       .  S
C474        C475   1.393       .  A
C474        C479   1.391       .  A
C474        C696   1.477       .  S
C475        C476   1.410       .  A
C475        H480   1.084       .  S
C476        C477   1.411       .  A
C476        C609   1.479       .  S
C477        C478   1.408       .  A
C477        H481   1.083       .  S
C478        C479   1.408       .  A
C478        C596   1.477   1_565  S
C479        H482   1.084       .  S
C483        C484   1.404       .  A
C483        C488   1.406       .  A
C483        C699   1.495       .  S
C484        C485   1.405       .  A
C484        H489   1.081       .  S
C485        C486   1.406       .  A
C485        C783   1.495       .  S
C486        C487   1.409       .  A
C486        H490   1.082       .  S
C487        C488   1.409       .  A
C487        C685   1.502       .  S
C488        H491   1.082       .  S
C492        C493   1.400       .  A
C492        C497   1.401       .  A
C492        C682   1.502       .  S
C493        C494   1.406       .  A
C493        H498   1.083       .  S
C494        C495   1.409       .  A
C494        C582   1.478       .  S
C495        C496   1.408       .  A
C495        H499   1.083       .  S
C496        C497   1.411       .  A
C496        C566   1.483   1_565  S
C497        H500   1.082       .  S
C501        C502   1.387       .  A
C501        C506   1.392       .  A
C501        C668   1.471       .  S
C502        C503   1.404       .  A
C502        H507   1.084       .  S
C503        C504   1.412       .  A
C503        C594   1.474       .  S
C504        C505   1.412       .  A
C504        H508   1.083       .  S
C505        C506   1.410       .  A
C505        C624   1.482       .  S
C506        H509   1.084       .  S
C510        C511   1.413       .  A
C510        C515   1.409       .  A
C510        C741   1.501       .  S
C511        C512   1.410       .  A
C511        H516   1.082       .  S
C512        C513   1.404       .  A
C512        C671   1.494       .  S
C513        C514   1.396       .  A
C513        H517   1.083       .  S
C514        C515   1.399       .  A
C514        C654   1.476       .  S
C515        H518   1.083       .  S
C519        C520   1.394       .  A
C519        C524   1.391       .  A
C519        C657   1.478       .  S
C520        C521   1.411       .  A
C520        H525   1.084       .  S
C521        C522   1.412       .  A
C521        C579   1.485       .  S
C522        C523   1.412       .  A
C522        H526   1.083       .  S
C523        C524   1.406       .  A
C523        C608   1.479       .  S
C524        H527   1.084       .  S
C528        C529   1.407   1_554  A
C528        C640   1.504       .  S
C529        C530   1.408       .  A
C529        H534   1.081       .  S
C530        C531   1.405   1_556  A
C530        C607   1.480       .  S
C531        H535   1.083       .  S
C532        C533   1.404       .  A
C532        C593   1.473   1_565  S
C533        H536   1.081       .  S
C537        C538   1.408       .  A
C537        C542   1.407   1_554  A
C537        C643   1.500       .  S
C538        C539   1.408   1_554  A
C538        H543   1.081       .  S
C539        C540   1.407       .  A
C539        C752   1.501       .  S
C540        C541   1.407       .  A
C540        H544   1.081       .  S
C541        C542   1.408       .  A
C541        C626   1.503       .  S
C542        H545   1.078       .  S
C546        C551   1.399       .  A
C546        C629   1.506       .  S
C547        C548   1.413       .  A
C547        H552   1.082       .  S
C548        C580   1.484       .  S
C549        C550   1.408       .  A
C549        H553   1.083   1_556  S
C550        C551   1.403       .  A
C550        C568   1.477   1_565  S
C551        H554   1.082       .  S
O555       Cu563   2.047       .  S
O555        C565   1.283       .  A
O556       Cu563   2.050       .  S
O556        C566   1.283       .  A
O557       Cu563   2.037       .  S
O557        C567   1.280       .  A
O558       Cu563   2.033       .  S
O558        C568   1.279       .  A
O559       Cu564   1.975       .  S
O559        C568   1.276       .  A
O560       Cu564   1.982       .  S
O560        C567   1.276       .  A
O561       Cu564   1.970       .  S
O561        C566   1.274       .  A
O562       Cu564   1.967       .  S
O562        C565   1.273       .  A
Cu563      Cu564   2.370       .  S
O569       Cu577   1.972       .  S
O569        C579   1.274       .  A
O570       Cu577   1.974       .  S
O570        C580   1.274       .  A
O571       Cu577   1.984       .  S
O571        C581   1.276       .  A
O572       Cu577   1.975       .  S
O572        C582   1.276       .  A
O573       Cu578   2.036       .  S
O573        C582   1.280       .  A
O574       Cu578   2.043       .  S
O574        C581   1.281       .  A
O575       Cu578   2.053       .  S
O575        C580   1.283       .  A
O576       Cu578   2.053       .  S
O576        C579   1.283       .  A
Cu577      Cu578   2.368       .  S
O583       Cu591   2.027       .  S
O583        C593   1.279       .  A
O584       Cu591   2.031       .  S
O584        C594   1.279       .  A
O585       Cu591   2.053       .  S
O585        C595   1.284       .  A
O586       Cu591   2.048       .  S
O586        C596   1.283       .  A
O587       Cu592   1.960       .  S
O587        C596   1.273       .  A
O588       Cu592   1.968       .  S
O588        C595   1.273       .  A
O589       Cu592   1.971       .  S
O589        C594   1.276       .  A
O590       Cu592   1.973       .  S
O590        C593   1.276       .  A
Cu591      Cu592   2.370       .  S
O597       Cu605   1.978       .  S
O597        C607   1.275       .  A
O598       Cu605   1.973   1_655  S
O598        C608   1.275       .  A
O599       Cu605   1.971       .  S
O599        C609   1.274       .  A
O600       Cu605   1.979       .  S
O600        C610   1.276   1_455  A
O601       Cu606   2.049   1_655  S
O601        C610   1.282       .  A
O602       Cu606   2.040       .  S
O602        C609   1.282       .  A
O603       Cu606   2.038   1_655  S
O603        C608   1.280       .  A
O604       Cu606   2.042       .  S
O604        C607   1.281       .  A
Cu605      Cu606   2.369       .  S
O611       Cu619   2.037       .  S
O611        C621   1.280       .  A
O612       Cu619   2.036       .  S
O612        C622   1.280       .  A
O613       Cu619   2.053       .  S
O613        C623   1.283       .  A
O614       Cu619   2.052       .  S
O614        C624   1.283       .  A
O615       Cu620   1.963       .  S
O615        C624   1.273       .  A
O616       Cu620   1.962       .  S
O616        C623   1.273       .  A
O617       Cu620   1.968       .  S
O617        C622   1.275       .  A
O618       Cu620   1.970       .  S
O618        C621   1.275       .  A
Cu619      Cu620   2.369       .  S
C625        C630   1.404       .  A
C625        H632   1.082       .  S
C626        C627   1.417       .  A
C627        C628   1.403       .  A
C627        N634   1.439       .  S
C628        C629   1.411       .  A
C628        H633   1.081       .  S
C630        N631   1.437       .  S
N631        O635   1.263       .  A
N631        O636   1.263       .  A
N634        O637   1.263       .  A
N634        O638   1.263       .  A
C639        C640   1.405   1_556  A
C639        C644   1.398       .  A
C639        H646   1.081       .  S
C641        C642   1.406       .  A
C641        N648   1.437       .  S
C642        H647   1.082       .  S
C643        C644   1.416   1_554  A
C644        N645   1.433       .  S
N645        O649   1.263       .  A
N645        O650   1.262       .  A
N648        O651   1.263       .  A
C653        C654   1.401       .  A
C653        C658   1.405       .  A
C653        H660   1.084       .  S
C654        C655   1.415       .  A
C655        C656   1.403       .  A
C655        N662   1.443       .  S
C656        C657   1.403       .  A
C656        H661   1.084       .  S
C657        C658   1.419       .  A
C658        N659   1.443       .  S
N659        O663   1.263       .  A
N659        O664   1.261       .  A
N662        O665   1.263       .  A
N662        O666   1.263       .  A
C667        C668   1.397       .  A
C667        C672   1.395       .  A
C667        H674   1.085       .  S
C668        C669   1.415       .  A
C669        C670   1.408       .  A
C669        N676   1.444       .  S
C670        C671   1.409       .  A
C670        H675   1.083       .  S
C671        C672   1.414       .  A
C672        N673   1.428       .  S
N673        O677   1.261       .  A
N673        O678   1.262       .  A
N676        O679   1.262       .  A
N676        O680   1.263       .  A
C681        C682   1.409       .  A
C681        C686   1.403       .  A
C681        H688   1.081       .  S
C682        C683   1.419       .  A
C683        C684   1.405       .  A
C683        N690   1.438       .  S
C684        C685   1.409       .  A
C684        H689   1.081       .  S
C685        C686   1.418       .  A
C686        N687   1.438       .  S
N687        O691   1.263       .  A
N687        O692   1.263       .  A
N690        O693   1.263       .  A
N690        O694   1.263       .  A
C695        C696   1.399       .  A
C695        C700   1.401       .  A
C695        H702   1.084       .  S
C696        C697   1.414       .  A
C697        C698   1.406       .  A
C697        N704   1.442       .  S
C698        C699   1.409       .  A
C698        H703   1.082       .  S
C699        C700   1.420       .  A
C700        N701   1.437       .  S
N701        O705   1.263       .  A
N701        O706   1.263       .  A
N704        O707   1.262       .  A
N704        O708   1.263       .  A
C709        C714   1.405       .  A
C709        H716   1.082       .  S
C710        C711   1.418       .  A
C711        C712   1.404       .  A
C711        N718   1.437       .  S
C712        C713   1.408       .  A
C712        H717   1.082       .  S
C714        N715   1.437       .  S
N715        O719   1.263       .  A
N715        O720   1.263       .  A
N718        O721   1.263       .  A
N718        O722   1.263       .  A
C723        C724   1.401       .  A
C723        C728   1.406       .  A
C723        H730   1.085       .  S
C725        C726   1.402       .  A
C725        N732   1.441       .  S
C726        H731   1.084       .  S
C727        C728   1.421       .  A
C728        N729   1.438       .  S
N729        O733   1.263       .  A
N732        O736   1.263       .  A
C737        C738   1.407       .  A
C737        C742   1.400       .  A
C737        H744   1.081       .  S
C738        C739   1.422       .  A
C739        C740   1.405       .  A
C739        N746   1.438       .  S
C740        C741   1.407       .  A
C740        H745   1.082       .  S
C741        C742   1.415       .  A
C742        N743   1.433       .  S
N743        O747   1.263       .  A
N743        O748   1.262       .  A
N746        O749   1.263       .  A
N746        O750   1.263       .  A
C751        C752   1.412   1_554  A
C751        C756   1.405       .  A
C751        H758   1.083       .  S
C753        C754   1.395       .  A
C753        N760   1.426       .  S
C754        H759   1.085       .  S
C755        C756   1.412       .  A
C756        N757   1.441       .  S
N757        O761   1.263       .  A
N760        O764   1.263       .  A
C765        C766   1.399   1_554  A
C765        C770   1.399       .  A
C765        H772   1.085       .  S
C767        C768   1.407       .  A
C767        N774   1.441       .  S
C768        H773   1.083       .  S
C769        C770   1.422   1_556  A
C770        N771   1.434       .  S
N771        O775   1.263       .  A
N774        O778   1.263       .  A
C779        C780   1.401       .  A
C779        C784   1.406       .  A
C779        H786   1.084       .  S
C780        C781   1.413       .  A
C781        C782   1.403       .  A
C781        N788   1.442       .  S
C782        C783   1.407       .  A
C782        H787   1.083       .  S
C783        C784   1.420       .  A
C784        N785   1.439       .  S
N785        O789   1.263       .  A
N785        O790   1.262       .  A
N788        O791   1.262       .  A
N788        O792   1.263       .  A
