geometry optimzed in LAMMPS
_audit_creation_date              2020-12-01 
_audit_creation_method            'lammps2cif' 
_symmetry_space_group_name_H-M    'P1' 
_symmetry_Int_Tables_number       1 
_symmetry_cell_setting            triclinic 
loop_ 
_symmetry_equiv_pos_as_xyz 
  x,y,z 
_cell_length_a                    48.73009346 
_cell_length_b                    43.58730169934503 
_cell_length_c                    38.83899828546353 
_cell_angle_alpha                 88.89948590975382 
_cell_angle_beta                  97.07772313250389 
_cell_angle_gamma                 91.6216576337768 
loop_ 
_atom_site_label 
_atom_site_type_symbol 
_atom_site_fract_x 
_atom_site_fract_y 
_atom_site_fract_z 
_atom_site_charge 
C1          C  0.97795962  0.03573373  0.40418276     0.30000
C2          C  0.97409040  0.47263664  0.40503088     0.30000
C3          C  0.95324294  0.01987379  0.38322724    -0.06200
C4          C  0.00268950  0.02033942  0.38871791    -0.07000
C5          C  0.97982139  0.01996436  0.44003066    -0.06900
C6          C  0.95040150  0.48882210  0.38296406    -0.06200
C7          C  0.99959029  0.48749727  0.38818861    -0.07000
C8          C  0.97662769  0.48895331  0.43985732    -0.06900
C9          C  0.93416361  0.47980607  0.35295844    -0.32300
N10         N  0.92472795  0.50515617  0.33513509     0.14200
C11         C  0.93668443  0.02961105  0.35400953    -0.32300
H12         H  0.93485905  0.05308114  0.34473665     0.16200
C13         C  0.02195764  0.47832963  0.37172718    -0.31200
N14         N  0.03732566  0.50341329  0.36271992     0.13000
C15         C  0.02657535  0.02948756  0.37399980    -0.31200
C16         C  0.98726463  0.47917732  0.47256202    -0.31500
N17         N  0.99668882  0.00288287  0.49276460     0.13500
H18         H  0.99089199  0.45556820  0.48046815     0.16100
C19         C  0.99247235  0.02845570  0.47249130    -0.31500
H20         H  0.99929097  0.05146317  0.47998304     0.16100
H21         H  0.03420117  0.05279098  0.37110151     0.16100
H22         H  0.93161992  0.45658327  0.34355010     0.16200
H23         H  0.02664358  0.45500440  0.36643453     0.16100
Zr24       Zr  0.87575107  0.20595125  0.34682428     2.17500
O25         O  0.85246542  0.17450489  0.38747601    -0.51400
O26         O  0.87295485  0.16986315  0.29903224    -0.74600
O27         O  0.82459575  0.20688128  0.32912017    -0.81300
O28         O  0.95022495  0.18130355  0.38108095    -0.83100
O29         O  0.81490906  0.25425485  0.30574953    -0.78700
O30         O  0.90604491  0.16238963  0.36892641    -0.90400
O31         O  0.89934432  0.18792301  0.25879999    -0.76300
O32         O  0.86972266  0.23639012  0.29487759    -0.85800
O33         O  0.91974583  0.21113461  0.32640185    -0.85500
O34         O  0.86063817  0.25567391  0.36291070    -0.72300
O35         O  0.90581652  0.23106736  0.39293074    -0.84400
Zr36       Zr  0.92727071  0.31640498  0.33577404     2.26400
Zr37       Zr  0.85589671  0.28628146  0.31026150     2.06300
Zr38       Zr  0.94984187  0.23622630  0.37122133     2.10000
Zr39       Zr  0.91360971  0.24023383  0.27456187     1.78800
O40         O  0.96695311  0.22614915  0.43178707    -0.93200
O41         O  0.88105681  0.24884340  0.22245718    -0.41000
O42         O  0.94345857  0.26719632  0.31877163    -0.77600
O43         O  0.89980601  0.28984126  0.28875236    -0.96300
O44         O  0.88351148  0.31194142  0.35650006    -0.89600
O45         O  0.93426711  0.28481192  0.38740291    -0.92500
C46         C  0.88411445  0.16694025  0.27088669     1.01300
C47         C  0.93241582  0.15903590  0.37797671     1.14200
C48         C  0.80762226  0.22711376  0.31460307     1.05000
O49         O  0.82702746  0.29101204  0.25465428    -0.94600
O50         O  0.86214341  0.33565798  0.28043875    -0.90400
O51         O  0.90771994  0.34900908  0.28923502    -0.83500
C52         C  0.88290126  0.35335177  0.27525586     1.11600
O53         O  0.85941340  0.25725301  0.44566393    -0.96600
Zr54       Zr  0.89081904  0.28114585  0.40829483     1.88900
O55         O  0.90963452  0.34995665  0.37532897    -0.73200
O56         O  0.82422801  0.31698459  0.33819776    -0.52500
O57         O  0.85517819  0.31583068  0.42085206    -0.97200
O58         O  0.91330980  0.26772618  0.46596454    -0.54400
O59         O  0.91795884  0.32838930  0.42714628    -0.73800
C60         C  0.92092318  0.35118214  0.40641886     0.98600
O61         O  0.94916942  0.36613295  0.32192586    -0.62600
O62         O  0.98976634  0.21606285  0.34824800    -0.57400
O63         O  0.97389033  0.31879720  0.36559617    -0.94100
O64         O  0.98828711  0.27312188  0.38212501    -0.92500
O65         O  0.95762946  0.21906848  0.26454781    -0.92800
O66         O  0.93311516  0.25961386  0.22335516    -0.91600
C67         C  0.98928430  0.29648449  0.36193596     1.17400
H68         H  0.92687986  0.19170377  0.32076118     0.33400
H69         H  0.89881618  0.30022054  0.26654724     0.44200
H70         H  0.94752701  0.29305638  0.40560658     0.37700
H71         H  0.84275786  0.25310646  0.37101099     0.34200
H72         H  0.87611944  0.22815920  0.21314666     0.26000
H73         H  0.81079936  0.32463072  0.31895708     0.32000
H74         H  0.86141826  0.32298273  0.44465917     0.37900
H75         H  0.95540991  0.19665700  0.26833741     0.32300
H76         H  0.99783972  0.20109518  0.36586680     0.31200
H77         H  0.98573755  0.21823918  0.43120004     0.32900
H78         H  0.93227700  0.27668111  0.46686475     0.31800
H79         H  0.93116157  0.24249113  0.20674282     0.35800
H80         H  0.93801691  0.38202927  0.33113579     0.28600
H81         H  0.84214348  0.15847013  0.37306192     0.32800
H82         H  0.85816910  0.23540264  0.43897350     0.35700
H83         H  0.98213736  0.20359493  0.32815073     0.28300
H84         H  0.96726674  0.36802489  0.33646476     0.41100
H85         H  0.81125423  0.30347427  0.25931480     0.31200
H86         H  0.86393522  0.25582274  0.23078032     0.38800
H87         H  0.91581520  0.24528470  0.46543843     0.30700
H88         H  0.81345255  0.30194283  0.35088803     0.30700
H89         H  0.83803320  0.18770122  0.39463837     0.31000
C90         C  0.87837657  0.04038898  0.22028450     0.30000
C91         C  0.87797887  0.47622383  0.21610417     0.30000
C92         C  0.85035656  0.02392406  0.20770536    -0.06200
C93         C  0.89801365  0.02688728  0.19519523    -0.07000
C94         C  0.88861586  0.02324965  0.25382120    -0.06900
C95         C  0.84975472  0.49078444  0.20490510    -0.06200
C96         C  0.89548202  0.49343332  0.19074608    -0.07000
C97         C  0.88804029  0.49115502  0.25085764    -0.06900
C98         C  0.82318358  0.48035479  0.19362540    -0.32300
N99         N  0.80592316  0.50419521  0.19184850     0.14200
C100        C  0.82284704  0.03184434  0.19990768    -0.32300
H101        H  0.81462191  0.05450777  0.20145968     0.16200
C102        C  0.91425398  0.48485130  0.16929072    -0.31200
N103        N  0.92917582  0.50996225  0.16064628     0.13000
C104        C  0.92020275  0.03605038  0.17721824    -0.31200
C105        C  0.90095309  0.48094510  0.28248165    -0.31500
N106        N  0.90948229  0.50575963  0.30182921     0.13500
H107        H  0.90488935  0.45734314  0.29010595     0.16100
C108        C  0.90247154  0.03163190  0.28535806    -0.31500
H109        H  0.90776947  0.05485096  0.29348424     0.16100
H110        H  0.92943842  0.05877954  0.17629285     0.16100
H111        H  0.81633408  0.45683832  0.18872389     0.16200
H112        H  0.91802646  0.46156943  0.16263824     0.16100
C113        C  0.02397604  0.03435347  0.11736346     0.30000
C114        C  0.01682872  0.47183274  0.11697243     0.30000
C115        C  0.04426779  0.01647436  0.14307320    -0.06200
C116        C  0.99586717  0.02204290  0.12833547    -0.07000
C117        C  0.02528271  0.01854497  0.08265056    -0.06900
C118        C  0.04002557  0.48583418  0.14259908    -0.06200
C119        C  0.99099195  0.48982259  0.12440222    -0.07000
C120        C  0.02214521  0.48659112  0.08183381    -0.06900
C121        C  0.05732135  0.47536036  0.17113161    -0.32300
N122        N  0.06940685  0.99870826  0.19053909     0.14200
C123        C  0.06103194  0.02454827  0.17286760    -0.32300
H124        H  0.06541180  0.04769758  0.18181911     0.16200
C125        C  0.96559975  0.48260259  0.13526995    -0.31200
N126        N  0.95385191  0.50881000  0.14446473     0.13000
C127        C  0.97323733  0.03322735  0.14238502    -0.31200
C128        C  0.01101860  0.47878680  0.04854088    -0.31500
N129        N  0.00788520  0.00398778  0.02945230     0.13500
H130        H  0.00167167  0.45672176  0.04113490     0.16100
C131        C  0.01637528  0.02858380  0.04916374    -0.31500
H132        H  0.01373413  0.05226472  0.04090029     0.16100
H133        H  0.97068402  0.05652327  0.15003626     0.16100
H134        H  0.05996581  0.45173929  0.17952529     0.16200
H135        H  0.95733609  0.45959703  0.13835540     0.16100
Zr136      Zr  0.12257888  0.20460180  0.17805370     2.17500
O137        O  0.14026043  0.17744914  0.13151244    -0.51400
O138        O  0.13258217  0.16235309  0.22218423    -0.74600
O139        O  0.17316991  0.21477117  0.17655641    -0.81300
O140        O  0.04825633  0.17445751  0.15167535    -0.83100
O141        O  0.18269963  0.26365099  0.19464135    -0.78700
O142        O  0.09308645  0.16421771  0.14806419    -0.90400
O143        O  0.11932001  0.17709441  0.27290311    -0.76300
O144        O  0.13819749  0.23393104  0.22812402    -0.85800
O145        O  0.08641658  0.19928350  0.21401582    -0.85500
O146        O  0.12707159  0.25731140  0.15760918    -0.72300
O147        O  0.08155261  0.22619865  0.14609398    -0.84400
Zr148      Zr  0.06647820  0.29975203  0.21549404     2.26400
Zr149      Zr  0.14144184  0.28642827  0.20873809     2.06300
Zr150      Zr  0.04563107  0.22058763  0.18284204     2.10000
Zr151      Zr  0.10285593  0.22756646  0.26468037     1.78800
O152        O  0.00734954  0.22909723  0.13736710    -0.93200
O153        O  0.14545291  0.23000787  0.30487481    -0.41000
O154        O  0.06186048  0.24777648  0.23461505    -0.77600
O155        O  0.10747402  0.27966037  0.24767877    -0.96300
O156        O  0.10102729  0.30793236  0.17784148    -0.89600
O157        O  0.05029425  0.27271041  0.16379509    -0.92500
C158        C  0.12862325  0.15720112  0.25430757     1.01300
C159        C  0.06696780  0.15762170  0.14250373     1.14200
C160        C  0.18997349  0.23802290  0.18362314     1.05000
O161        O  0.18134464  0.29678697  0.25151038    -0.94600
O162        O  0.13819002  0.33232251  0.24223606    -0.90400
O163        O  0.09272539  0.34010967  0.24606430    -0.83500
C164        C  0.11839890  0.34717474  0.25248257     1.11600
O165        O  0.09983508  0.25971413  0.07429201    -0.96600
Zr166      Zr  0.08562474  0.27908286  0.12755443     1.88900
O167        O  0.05150537  0.34008048  0.17584698    -0.73200
O168        O  0.15841661  0.32498909  0.16977399    -0.52500
O169        O  0.11592425  0.31500248  0.10045685    -0.97200
O170        O  0.04770312  0.26620128  0.08282464    -0.54400
O171        O  0.05952203  0.32717142  0.12190780    -0.73800
C172        C  0.04979957  0.34518861  0.14318854     0.98600
O173        O  0.04332720  0.32396219  0.25983361    -0.62600
O174        O  0.01696219  0.17917614  0.20389239    -0.57400
O175        O  0.01812537  0.28526932  0.20758369    -0.94100
O176        O  0.01381355  0.23624292  0.22161574    -0.92500
O177        O  0.06819343  0.19928748  0.29360361    -0.92800
O178        O  0.09744095  0.25241106  0.31870331    -0.91600
C179        C  0.00936884  0.26434117  0.22680031     1.17400
H180        H  0.08218400  0.17807445  0.21936916     0.33400
H181        H  0.11261449  0.29037146  0.26910895     0.44200
H182        H  0.03323567  0.28041979  0.15189234     0.37700
H183        H  0.14117909  0.25867269  0.14219740     0.34200
H184        H  0.15958791  0.22023917  0.29278049     0.26000
H185        H  0.17661142  0.33181211  0.18177891     0.32000
H186        H  0.10401452  0.32390319  0.08046470     0.37900
H187        H  0.05489952  0.19096412  0.27449629     0.32300
H188        H  0.00418020  0.17247484  0.18344044     0.31200
H189        H  0.99263060  0.23762996  0.14951206     0.32900
H190        H  0.03233029  0.27935998  0.08726597     0.31800
H191        H  0.10066849  0.23624199  0.33690056     0.35800
H192        H  0.05585853  0.32247917  0.28187311     0.28600
H193        H  0.15591952  0.16544889  0.14282282     0.32800
H194        H  0.10423288  0.23798653  0.07978999     0.35700
H195        H  0.02942128  0.16176389  0.20964996     0.28300
H196        H  0.04251379  0.34612219  0.25379176     0.41100
H197        H  0.18304842  0.27800472  0.26626769     0.31200
H198        H  0.15101794  0.25202868  0.30555879     0.38800
H199        H  0.04160510  0.24518005  0.08904206     0.30700
H200        H  0.16295473  0.31330777  0.14970598     0.30700
H201        H  0.14869380  0.19351237  0.11749065     0.31000
C202        C  0.11966347  0.46797603  0.30513554     0.30000
C203        C  0.12636375  0.02954063  0.30298559     0.30000
C204        C  0.10909928  0.48347711  0.27039945    -0.06200
C205        C  0.10182814  0.48439363  0.32978877    -0.07000
C206        C  0.14855957  0.48208502  0.31541379    -0.06900
C207        C  0.11304127  0.01351696  0.27024756    -0.06200
C208        C  0.10622884  0.01703574  0.32984694    -0.07000
C209        C  0.15332754  0.01208103  0.31435306    -0.06900
C210        C  0.09781692  0.02305890  0.23984951    -0.32300
N211        N  0.08606046  0.49945208  0.22072815     0.14200
C212        C  0.09319301  0.47413907  0.24026091    -0.32300
H213        H  0.08640076  0.45086516  0.23393929     0.16200
C214        C  0.08168245  0.02762945  0.34102593    -0.31200
N215        N  0.06324172  0.50268180  0.34856438     0.13000
C216        C  0.07616963  0.47689371  0.34068788    -0.31200
C217        C  0.18186637  0.01827428  0.31837665    -0.31500
N218        N  0.19373279  0.49331231  0.32097452     0.13500
H219        H  0.19179720  0.04040100  0.31465572     0.16100
C220        C  0.17476513  0.47013873  0.32080526    -0.31500
H221        H  0.17974147  0.44606769  0.32148817     0.16100
H222        H  0.06665387  0.45424321  0.34022288     0.16100
H223        H  0.09461609  0.04662965  0.23156661     0.16200
H224        H  0.07521461  0.05117369  0.33992934     0.16100
C225        C  0.52778457  0.27659265  0.08551676     0.30000
C226        C  0.52322974  0.21407394  0.08448242     0.30000
C227        C  0.55157432  0.25916042  0.10580118    -0.06200
C228        C  0.50178631  0.26273165  0.10123015    -0.07000
C229        C  0.52390793  0.26237478  0.04944384    -0.06900
C230        C  0.54874190  0.22776022  0.10630874    -0.06200
C231        C  0.49921396  0.23033675  0.10078829    -0.07000
C232        C  0.52203722  0.23053118  0.04890768    -0.06900
C233        C  0.56446075  0.21730726  0.13625193    -0.32300
N234        N  0.57776625  0.24158354  0.15285934     0.14200
C235        C  0.56981264  0.26721498  0.13461503    -0.32300
H236        H  0.57462210  0.29029675  0.14344173     0.16200
C237        C  0.47418595  0.22314048  0.11397410    -0.31200
N238        N  0.46173988  0.24945505  0.12224313     0.13000
C239        C  0.47831059  0.27363325  0.11398637    -0.31200
C240        C  0.50940441  0.22256899  0.01624076    -0.31500
N241        N  0.50429685  0.24850273  0.99681304     0.13500
H242        H  0.50299735  0.19959185  0.00816407     0.16100
C243        C  0.51140224  0.27282030  0.01756652    -0.31500
H244        H  0.50658886  0.29641063  0.01078179     0.16100
H245        H  0.47334052  0.29747996  0.11610255     0.16100
H246        H  0.56395201  0.19410805  0.14658800     0.16200
H247        H  0.46512507  0.20047648  0.11637855     0.16100
Zr248      Zr  0.62441540  0.44970513  0.15705686     2.17500
O249        O  0.64994518  0.42491773  0.11569619    -0.51400
O250        O  0.63142158  0.41011167  0.20351271    -0.74600
O251        O  0.67403323  0.46239469  0.17163712    -0.81300
O252        O  0.55789839  0.41428137  0.10789272    -0.83100
O253        O  0.67922845  0.00405258  0.20418596    -0.78700
O254        O  0.60188833  0.40261917  0.13020522    -0.90400
O255        O  0.59750287  0.41411230  0.23803954    -0.76300
O256        O  0.62182810  0.47155887  0.21245160    -0.85800
O257        O  0.57849760  0.44161590  0.16988137    -0.85500
O258        O  0.63587726  0.00284716  0.14921023    -0.72300
O259        O  0.59637908  0.47583883  0.11010355    -0.84400
Zr260      Zr  0.55733365  0.03629121  0.17367690     2.26400
Zr261      Zr  0.63332519  0.02432496  0.20507954     2.06300
Zr262      Zr  0.55045075  0.46523128  0.12270281     2.10000
Zr263      Zr  0.57545324  0.46226857  0.22478295     1.78800
O264        O  0.54383087  0.45400682  0.06098024    -0.93200
O265        O  0.59809884  0.46749828  0.28398719    -0.41000
O266        O  0.54709530  0.98313879  0.17971225    -0.77600
O267        O  0.58770997  0.01434058  0.21997438    -0.96300
O268        O  0.60282045  0.04896090  0.16096469    -0.89600
O269        O  0.56095927  0.01731261  0.11782692    -0.92500
C270        C  0.61796991  0.40030965  0.22844392     1.01300
C271        C  0.57733295  0.39560158  0.11535729     1.14200
C272        C  0.68794585  0.48465069  0.18760001     1.05000
O273        O  0.65057682  0.02152585  0.26658442    -0.98200
O274        O  0.61928899  0.07135926  0.23064067    -0.90400
O275        O  0.57370774  0.07738161  0.21226244    -0.83500
C276        C  0.59663669  0.08611706  0.22947753     1.11600
O277        O  0.64055995  0.02140638  0.06647154    -0.96600
Zr278      Zr  0.60580922  0.02901630  0.10533716     1.88900
O279        O  0.55177203  0.08052060  0.13770910    -0.73200
O280        O  0.66526915  0.06605674  0.19298169    -0.52500
O281        O  0.64156379  0.06933013  0.10687736    -0.97200
O282        O  0.58565003  0.02164714  0.04532115    -0.54400
O283        O  0.57748112  0.07573041  0.09336516    -0.73800
C284        C  0.55948892  0.08960946  0.10906301     0.98600
O285        O  0.52422747  0.04844387  0.21302128    -0.62600
O286        O  0.50864747  0.43895346  0.13768168    -0.57400
O287        O  0.51143402  0.02806940  0.14077746    -0.94100
O288        O  0.50962787  0.49024899  0.09904572    -0.92500
O289        O  0.53878392  0.42371860  0.22898299    -0.92800
O290        O  0.54191389  0.47806707  0.26222252    -0.91600
C291        C  0.49943031  0.01095988  0.11614360     1.17400
H292        H  0.57367487  0.42023385  0.17274571     0.33400
H293        H  0.58545306  0.02365316  0.24173275     0.44200
H294        H  0.54831910  0.02668847  0.09988461     0.37700
H295        H  0.65407368  0.00654730  0.14241199     0.34200
H296        H  0.58934749  0.45122416  0.29740977     0.26000
H297        H  0.67952596  0.06656278  0.21347668     0.32000
H298        H  0.63199120  0.08852053  0.11050848     0.37900
H299        H  0.54276158  0.41456904  0.25253690     0.32300
H300        H  0.50711674  0.41958185  0.12461660     0.31200
H301        H  0.53902683  0.47382740  0.04921857     0.32900
H302        H  0.59195524  0.03989081  0.03257235     0.31800
H303        H  0.52922125  0.98039799  0.24979017     0.35800
H304        H  0.50978046  0.05989969  0.19847437     0.28600
H305        H  0.66618511  0.41590705  0.12970099     0.32800
H306        H  0.65179390  0.00437166  0.07723788     0.35700
H307        H  0.51279789  0.43265376  0.16232975     0.28300
H308        H  0.51526527  0.02847193  0.21799992     0.41100
H309        H  0.66859372  0.03284214  0.26856487     0.31200
H310        H  0.61718901  0.46056664  0.28325507     0.38800
H311        H  0.56555163  0.02443547  0.04519498     0.30700
H312        H  0.67498818  0.05868981  0.17390596     0.30700
H313        H  0.65754805  0.44200949  0.10229858     0.31000
C314        C  0.61358299  0.20962575  0.27640340     0.30000
C315        C  0.62174176  0.27239527  0.27315252     0.30000
C316        C  0.60810241  0.22494477  0.24008268    -0.06200
C317        C  0.59586639  0.22863187  0.29806532    -0.07000
C318        C  0.64339533  0.22149365  0.28819838    -0.06900
C319        C  0.61112842  0.25655754  0.23886954    -0.06200
C320        C  0.59929498  0.26065209  0.29628880    -0.07000
C321        C  0.64736184  0.25343561  0.28742623    -0.06900
C322        C  0.60059473  0.26617740  0.20592383    -0.32300
N323        N  0.59240313  0.24112672  0.18667442     0.14200
C324        C  0.59740022  0.21579644  0.20702667    -0.32300
H325        H  0.59238391  0.19259081  0.19874662     0.16200
C326        C  0.57621737  0.27225428  0.30951008    -0.31200
N327        N  0.56043582  0.24852731  0.32067004     0.13000
C328        C  0.57225908  0.22192318  0.31341525    -0.31200
C329        C  0.67568735  0.25930596  0.29343153    -0.31500
N330        N  0.68898812  0.23214795  0.29620945     0.13500
H331        H  0.68588154  0.28167737  0.29324803     0.16100
C332        C  0.66957074  0.20921364  0.29177021    -0.31500
H333        H  0.67445789  0.18563851  0.28804116     0.16100
H334        H  0.56356739  0.19916749  0.31700076     0.16100
H335        H  0.59803588  0.28975240  0.19729727     0.16200
H336        H  0.57017145  0.29591829  0.30876613     0.16100
C337        C  0.47434063  0.28530236  0.37368959     0.30000
C338        C  0.47147580  0.22226520  0.37406343     0.30000
C339        C  0.44939315  0.27048155  0.35129777    -0.06200
C340        C  0.49914319  0.26921215  0.35936276    -0.07000
C341        C  0.47429859  0.26934489  0.40962270    -0.06900
C342        C  0.44805631  0.23860336  0.35136862    -0.06200
C343        C  0.49695419  0.23692062  0.35904303    -0.07000
C344        C  0.47219299  0.23739493  0.40946481    -0.06900
C345        C  0.43418090  0.23023901  0.31959398    -0.32300
N346        N  0.42590706  0.25564620  0.30110594     0.14200
C347        C  0.43557002  0.28036767  0.31975843    -0.32300
H348        H  0.43527574  0.30370903  0.30979402     0.16200
C349        C  0.51853477  0.22645023  0.34285489    -0.31200
N350        N  0.53510761  0.25065133  0.33529149     0.13000
C351        C  0.52374317  0.27674793  0.34546453    -0.31200
C352        C  0.47993713  0.22692903  0.44295290    -0.31500
N353        N  0.48685230  0.25136997  0.46368223     0.13500
H354        H  0.48267015  0.20316674  0.45079153     0.16100
C355        C  0.48464452  0.27722323  0.44332884    -0.31500
H356        H  0.49175307  0.29992605  0.45167722     0.16100
H357        H  0.53335291  0.29920954  0.34367903     0.16100
H358        H  0.43288153  0.20726049  0.30947109     0.16200
H359        H  0.52161370  0.20291231  0.33653484     0.16100
Zr360      Zr  0.37530616  0.45068779  0.30569739     2.17500
O361        O  0.36008897  0.41935585  0.35277162    -0.51400
O362        O  0.36325945  0.41107827  0.26142586    -0.74600
O363        O  0.32539542  0.45800248  0.31165338    -0.81300
O364        O  0.44970608  0.42516530  0.31500677    -0.83100
O365        O  0.31739674  0.00693885  0.30163948    -0.78700
O366        O  0.40776166  0.41040236  0.32977098    -0.90400
O367        O  0.36256583  0.43256148  0.20786056    -0.76300
O368        O  0.35229362  0.48395085  0.26199648    -0.85800
O369        O  0.40445805  0.45027177  0.26042991    -0.85500
O370        O  0.37709714  0.00260683  0.33304356    -0.72300
O371        O  0.42015774  0.47017522  0.33108395    -0.84400
Zr372      Zr  0.42816200  0.05366596  0.26974633     2.26400
Zr373      Zr  0.35702762  0.03555099  0.28614233     2.06300
Zr374      Zr  0.44720494  0.47319004  0.28376434     2.10000
Zr375      Zr  0.38093204  0.48383396  0.21797349     1.78800
O376        O  0.49438601  0.48647384  0.30808814    -0.93200
O377        O  0.33247685  0.49027371  0.19537068    -0.41000
O378        O  0.41818312  0.00308733  0.26357636    -0.77600
O379        O  0.38470266  0.03464505  0.23939769    -0.96300
O380        O  0.39988352  0.05576730  0.31454734    -0.89600
O381        O  0.45235508  0.02321778  0.31408495    -0.92500
C382        C  0.36090019  0.40930863  0.22805243     1.01300
C383        C  0.43390319  0.40612259  0.32898942     1.14200
C384        C  0.30898106  0.48104080  0.31061658     1.05000
O385        O  0.31211054  0.04804320  0.25496064    -0.94600
O386        O  0.35802949  0.08424826  0.25227323    -0.90400
O387        O  0.40158414  0.09238189  0.23834218    -0.83500
C388        C  0.37626434  0.09945146  0.23685770     1.11600
O389        O  0.41464409  0.99416968  0.41135132    -0.96600
Zr390      Zr  0.42188989  0.02185405  0.35812371     1.88900
O391        O  0.44065135  0.09322219  0.31271388    -0.73200
O392        O  0.34498456  0.06951906  0.33060827    -0.52500
O393        O  0.39817935  0.04934111  0.39919051    -0.97200
O394        O  0.46622934  0.01032704  0.39158972    -0.54400
O395        O  0.44377389  0.07211152  0.36676218    -0.73800
C396        C  0.44621010  0.09468544  0.34578643     0.98600
O397        O  0.46843702  0.08127063  0.25228574    -0.62600
O398        O  0.47495119  0.44500700  0.24772963    -0.57400
O399        O  0.45700295  0.03833815  0.22807738    -0.94100
O400        O  0.44736073  0.48672300  0.22281222    -0.92500
O401        O  0.40416884  0.45763923  0.17587391    -0.92800
O402        O  0.39056683  0.51378806  0.16707012    -0.91600
C403        C  0.45588847  0.01278331  0.21274851     1.17400
H404        H  0.40855567  0.43045535  0.25190545     0.33400
H405        H  0.37749050  0.04551482  0.21852689     0.44200
H406        H  0.47051714  0.03182064  0.32171872     0.37700
H407        H  0.36502354  0.00200326  0.35102808     0.34200
H408        H  0.33145436  0.51168457  0.18642689     0.26000
H409        H  0.35658517  0.08827969  0.32829632     0.32000
H410        H  0.37827263  0.04674590  0.39067217     0.37900
H411        H  0.38978515  0.45352236  0.15606800     0.32300
H412        H  0.49086703  0.43767801  0.26373800     0.31200
H413        H  0.49717855  0.47457824  0.33015693     0.32900
H414        H  0.47762072  0.02946962  0.39117574     0.31800
H415        H  0.38923725  0.99948835  0.15072423     0.35800
H416        H  0.46293195  0.10297999  0.24995148     0.28600
H417        H  0.34571421  0.40511446  0.34140151     0.32800
H418        H  0.39866274  0.98010736  0.40454830     0.35700
H419        H  0.46372991  0.42628659  0.24102880     0.28300
H420        H  0.48243112  0.08073403  0.27306227     0.41100
H421        H  0.31475754  0.04822610  0.23009528     0.31200
H422        H  0.32954069  0.47753381  0.17433470     0.38800
H423        H  0.47502592  0.99591241  0.37717967     0.30700
H424        H  0.32599539  0.07591880  0.32202173     0.30700
H425        H  0.35004214  0.43326913  0.36639572     0.31000
C426        C  0.37795945  0.22258136  0.18457906     0.30000
C427        C  0.37819242  0.28536874  0.18078887     0.30000
C428        C  0.39105200  0.23940552  0.21667122    -0.06200
C429        C  0.39588044  0.23660395  0.15695866    -0.07000
C430        C  0.35016949  0.23698276  0.17360457    -0.06900
C431        C  0.39098060  0.27079775  0.21534140    -0.06200
C432        C  0.39658967  0.26959423  0.15498442    -0.07000
C433        C  0.34991014  0.26831754  0.17204470    -0.06900
C434        C  0.40466560  0.28088360  0.24678633    -0.32300
N435        N  0.41273738  0.25586850  0.26658271     0.14200
C436        C  0.40495788  0.23047415  0.24800845    -0.32300
H437        H  0.40876322  0.20707532  0.25656019     0.16200
C438        C  0.42211712  0.27715071  0.14276434    -0.31200
N439        N  0.43542160  0.25117752  0.13529540     0.13000
C440        C  0.42010908  0.22675173  0.14539630    -0.31200
C441        C  0.32210252  0.27606354  0.16734074    -0.31500
N442        N  0.30598944  0.24993902  0.16640226     0.13500
H443        H  0.31424353  0.29905001  0.16686495     0.16100
C444        C  0.32310231  0.22594020  0.16924897    -0.31500
H445        H  0.31634087  0.20220029  0.17157447     0.16100
H446        H  0.42726058  0.20348257  0.14737192     0.16100
H447        H  0.40841013  0.30450119  0.25446294     0.16200
H448        H  0.43120928  0.30000203  0.14192980     0.16100
C449        C  0.37336389  0.37497935  0.18151789    -0.20300
C450        C  0.36041714  0.37846570  0.21192506    -0.06900
C451        C  0.35046761  0.35199351  0.22801199     0.14000
C452        C  0.35639733  0.32328440  0.21589904    -0.20400
C453        C  0.37183446  0.31921371  0.18756384    -0.06900
C454        C  0.37833743  0.34580285  0.16849282     0.14000
C455        C  0.38875575  0.34467512  0.13376773    -0.23700
H456        H  0.38007483  0.39520318  0.16786400     0.15200
H457        H  0.34925482  0.30325987  0.22957248     0.15300
C458        C  0.33343227  0.35348083  0.25786484    -0.23700
H459        H  0.37653044  0.36025490  0.11520110     0.05500
H460        H  0.38606261  0.32161547  0.12238260     0.08700
H461        H  0.41081134  0.35233651  0.13612006     0.08700
H462        H  0.31584566  0.36899150  0.25090815     0.08700
H463        H  0.34635823  0.36171191  0.28155327     0.08700
H464        H  0.32469015  0.33057907  0.26434742     0.05500
C465        C  0.38101062  0.16548609  0.17422969    -0.20300
C466        C  0.37283407  0.18904947  0.19423550    -0.06900
C467        C  0.35846160  0.18087610  0.22364697     0.14000
C468        C  0.35737468  0.15040768  0.23482339    -0.20400
C469        C  0.36876354  0.12762856  0.21718902    -0.06900
C470        C  0.37843927  0.13475078  0.18497375     0.14000
C471        C  0.38558080  0.11043517  0.16103506    -0.23700
H472        H  0.38917151  0.17083549  0.15009631     0.15200
H473        H  0.34917317  0.14470760  0.25897744     0.15300
C474        C  0.34473956  0.20288310  0.24570334    -0.23700
H475        H  0.37192458  0.11227420  0.13603677     0.05500
H476        H  0.38277898  0.08691177  0.17163187     0.08700
H477        H  0.40720981  0.11434895  0.15585855     0.08700
H478        H  0.32263826  0.19587038  0.24558527     0.08700
H479        H  0.34501782  0.22716695  0.23742202     0.08700
H480        H  0.35493959  0.20175159  0.27288953     0.05500
C481        C  0.48271740  0.33835769  0.34846409    -0.20300
C482        C  0.46936634  0.32028266  0.37189453    -0.06900
C483        C  0.44545390  0.33284799  0.38404657     0.14000
C484        C  0.43491426  0.36095466  0.37024124    -0.20400
C485        C  0.44733898  0.37763132  0.34487996    -0.06900
C486        C  0.47240887  0.36644756  0.33491968     0.14000
C487        C  0.48800467  0.38251425  0.30819696    -0.23700
H488        H  0.49997157  0.32949031  0.33773500     0.15200
H489        H  0.41634262  0.36967722  0.37885916     0.15300
C490        C  0.42956916  0.31637655  0.41021421    -0.23700
H491        H  0.50615997  0.36952968  0.30247119     0.05500
H492        H  0.49611729  0.40520506  0.31788239     0.08700
H493        H  0.47418912  0.38503353  0.28344676     0.08700
H494        H  0.44265962  0.31463322  0.43552066     0.08700
H495        H  0.42229497  0.29327283  0.40109547     0.08700
H496        H  0.41092616  0.32897547  0.41493250     0.05500
C497        C  0.48060067  0.13426837  0.37148675    -0.20300
C498        C  0.45311057  0.12518447  0.36042284    -0.06900
C499        C  0.43184286  0.14585641  0.36271990     0.14000
C500        C  0.43875271  0.17618101  0.37165897    -0.20400
C501        C  0.46647328  0.18721673  0.37549995    -0.06900
C502        C  0.48744415  0.16500079  0.38053136     0.14000
C503        C  0.51626158  0.17201629  0.39779829    -0.23700
H504        H  0.49671887  0.11749402  0.37284260     0.15200
H505        H  0.42211745  0.19185411  0.37322222     0.15300
C506        C  0.40179682  0.13615423  0.35473235    -0.23700
H507        H  0.52026088  0.15752316  0.42162194     0.05500
H508        H  0.51925240  0.19618608  0.40597737     0.08700
H509        H  0.53170913  0.16654459  0.38024664     0.08700
H510        H  0.39694599  0.11694697  0.37237338     0.08700
H511        H  0.39750340  0.12856219  0.32742754     0.08700
H512        H  0.38777190  0.15521551  0.35815181     0.05500
C513        C  0.45815893  0.03900186  0.11879413    -0.20300
C514        C  0.46909596  0.01223084  0.10779298    -0.06900
C515        C  0.45775843  0.98548470  0.12131504     0.14000
C516        C  0.45642814  0.98499779  0.15710617    -0.20400
C517        C  0.45671538  0.01313018  0.17474838    -0.06900
C518        C  0.45442153  0.04073802  0.15400876     0.14000
C519        C  0.44878966  0.07158257  0.16781501    -0.23700
H520        H  0.45783647  0.05933894  0.10240775     0.15200
H521        H  0.45614836  0.96315851  0.17059048     0.15300
C522        C  0.45138663  0.95736290  0.09980616    -0.23700
H523        H  0.46660692  0.07985056  0.18596424     0.05500
H524        H  0.42991330  0.06996671  0.18104783     0.08700
H525        H  0.44558496  0.08900433  0.14664860     0.08700
H526        H  0.46312921  0.93758594  0.11140345     0.08700
H527        H  0.47078867  0.44979741  0.08484927     0.08700
H528        H  0.42898754  0.95145743  0.09863187     0.05500
C529        C  0.63977931  0.34926993  0.22871536    -0.20300
C530        C  0.62500687  0.37001702  0.24583954    -0.06900
C531        C  0.61557080  0.36013210  0.27764652     0.14000
C532        C  0.61722500  0.32894349  0.28783710    -0.20400
C533        C  0.62771684  0.30703947  0.26725836    -0.06900
C534        C  0.64204788  0.31839330  0.23937753     0.14000
C535        C  0.65916022  0.29910057  0.21870599    -0.23700
H536        H  0.64872953  0.35675365  0.20565293     0.15200
H537        H  0.61004076  0.32177090  0.31197553     0.15300
C538        C  0.60403151  0.38201421  0.30149441    -0.23700
H539        H  0.65024264  0.29937096  0.19098242     0.05500
H540        H  0.68044085  0.30918949  0.22046849     0.08700
H541        H  0.66069284  0.27494742  0.22743747     0.08700
H542        H  0.58353369  0.39004288  0.28981924     0.08700
H543        H  0.61864718  0.40182537  0.30692110     0.08700
H544        H  0.60098827  0.37090489  0.32677441     0.05500
C545        C  0.61904045  0.12194015  0.27488492    -0.20300
C546        C  0.59712794  0.11555526  0.24856410    -0.06900
C547        C  0.57635307  0.13785096  0.24114650     0.14000
C548        C  0.58051297  0.16673571  0.25627991    -0.20400
C549        C  0.60575748  0.17516793  0.27565840    -0.06900
C550        C  0.62254592  0.15106763  0.29006622     0.14000
C551        C  0.64034227  0.15357760  0.32447109    -0.23700
H552        H  0.63313826  0.10398234  0.28426972     0.15200
H553        H  0.56531727  0.18419161  0.24929568     0.15300
C554        C  0.55055592  0.13284827  0.21579412    -0.23700
H555        H  0.66195926  0.14746958  0.32207776     0.05500
H556        H  0.63231240  0.13702231  0.34313855     0.08700
H557        H  0.63972675  0.17666029  0.33579556     0.08700
H558        H  0.53782594  0.11353727  0.22490810     0.08700
H559        H  0.55622759  0.12819195  0.18960048     0.08700
H560        H  0.53734197  0.15331918  0.21313420     0.05500
C561        C  0.53209685  0.32553645  0.11736546    -0.20300
C562        C  0.53681020  0.31041048  0.08712270    -0.06900
C563        C  0.55890585  0.32230567  0.06871003     0.14000
C564        C  0.57282802  0.34979996  0.07918910    -0.20400
C565        C  0.56810758  0.36380254  0.10958302    -0.06900
C566        C  0.54826129  0.35091759  0.12958347     0.14000
C567        C  0.54477959  0.36323296  0.16474759    -0.23700
H568        H  0.51798816  0.31544692  0.13399733     0.15200
H569        H  0.58781546  0.36030306  0.06383407     0.15300
C570        C  0.57005068  0.30586621  0.03963238    -0.23700
H571        H  0.52991915  0.34901452  0.17812820     0.05500
H572        H  0.53681084  0.38670688  0.16204969     0.08700
H573        H  0.56499982  0.36342911  0.18144840     0.08700
H574        H  0.57568051  0.28207787  0.04764797     0.08700
H575        H  0.55504204  0.30620983  0.01588944     0.08700
H576        H  0.58921936  0.31724782  0.03226841     0.05500
C577        C  0.51192163  0.15795593  0.09678098    -0.20300
C578        C  0.52850987  0.17964693  0.08174867    -0.06900
C579        C  0.55311868  0.16918531  0.06889888     0.14000
C580        C  0.56179168  0.13900552  0.07612104    -0.20400
C581        C  0.54667153  0.11859572  0.09489732    -0.06900
C582        C  0.52039833  0.12766478  0.10311633     0.14000
C583        C  0.50081441  0.10559670  0.11852517    -0.23700
H584        H  0.49290404  0.16479085  0.10537920     0.15200
H585        H  0.58134730  0.13184680  0.06873963     0.15300
C586        C  0.57158514  0.18953281  0.04889254    -0.23700
H587        H  0.47965236  0.11476969  0.11657565     0.05500
H588        H  0.50777514  0.10120847  0.14641570     0.08700
H589        H  0.49965433  0.08389226  0.10397142     0.08700
H590        H  0.58019487  0.20952680  0.06411186     0.08700
H591        H  0.56008496  0.19736361  0.02407984     0.08700
H592        H  0.58964441  0.17705287  0.04195909     0.05500
C593        C  0.24172526  0.48819152  0.34906951    -0.20300
C594        C  0.22274549  0.48867106  0.31876651    -0.06900
C595        C  0.23426426  0.98515431  0.28869202     0.14000
C596        C  0.26233140  0.97986237  0.28645857    -0.20400
C597        C  0.27946390  0.47672184  0.31560627    -0.06900
C598        C  0.27007262  0.48297701  0.34772693     0.14000
C599        C  0.29022279  0.48537832  0.38027558    -0.23700
H600        H  0.23440568  0.49267673  0.37366661     0.15200
H601        H  0.26979590  0.98088650  0.26127496     0.15300
C602        C  0.21494533  0.99009987  0.25595084    -0.23700
H603        H  0.27961435  0.49014285  0.40325167     0.05500
H604        H  0.30554094  0.50431184  0.37736332     0.08700
H605        H  0.30127005  0.46348837  0.38512245     0.08700
H606        H  0.20726216  0.01374550  0.25544825     0.08700
H607        H  0.19726760  0.97336463  0.25483732     0.08700
H608        H  0.22542033  0.98724751  0.23243033     0.05500
C609        C  0.23860931  0.25299061  0.20422049    -0.20300
C610        C  0.22015070  0.23688005  0.17970587    -0.06900
C611        C  0.23067524  0.22470247  0.15058245     0.14000
C612        C  0.25891928  0.22976544  0.14640925    -0.20400
C613        C  0.27685094  0.24713028  0.17025421    -0.06900
C614        C  0.26656276  0.25822237  0.19995212     0.14000
C615        C  0.28513340  0.27488297  0.22784429    -0.23700
H616        H  0.23091427  0.26214296  0.22685329     0.15200
H617        H  0.26709871  0.22039300  0.12425046     0.15300
C618        C  0.21219177  0.20726371  0.12340408    -0.23700
H619        H  0.27409842  0.28015953  0.25030788     0.05500
H620        H  0.29266538  0.29701130  0.21750749     0.08700
H621        H  0.30298877  0.26050413  0.23748897     0.08700
H622        H  0.19498893  0.22192591  0.11211170     0.08700
H623        H  0.20369285  0.18626487  0.13525866     0.08700
H624        H  0.22360450  0.20007981  0.10197794     0.05500
C625        C  0.13808500  0.42809074  0.27061432    -0.20300
C626        C  0.12302750  0.43398516  0.29874705    -0.06900
C627        C  0.11346040  0.40869498  0.31749301     0.14000
C628        C  0.11305663  0.37956389  0.30256256    -0.20400
C629        C  0.12496758  0.37510396  0.27185386    -0.06900
C630        C  0.13932946  0.39916766  0.25711341     0.14000
C631        C  0.15412477  0.39515537  0.22556693    -0.23700
H632        H  0.14778241  0.44696059  0.25762504     0.15200
H633        H  0.10355536  0.36018848  0.31494620     0.15300
C634        C  0.10623685  0.41069977  0.35383746    -0.23700
H635        H  0.16357627  0.41707293  0.21706141     0.05500
H636        H  0.13936687  0.38656075  0.20356901     0.08700
H637        H  0.17102064  0.37862772  0.23168607     0.08700
H638        H  0.08396770  0.40494096  0.35438332     0.08700
H639        H  0.11158320  0.43344095  0.36527373     0.08700
H640        H  0.11855430  0.39391172  0.37069153     0.05500
C641        C  0.12343863  0.08643087  0.31442420    -0.20300
C642        C  0.13221432  0.06344061  0.29422214    -0.06900
C643        C  0.14537608  0.07271420  0.26437257     0.14000
C644        C  0.14461353  0.10340460  0.25285397    -0.20400
C645        C  0.13295892  0.12598921  0.27100106    -0.06900
C646        C  0.12411916  0.11749577  0.30389329     0.14000
C647        C  0.11494001  0.14037470  0.32854237    -0.23700
H648        H  0.11579599  0.08011054  0.33861607     0.15200
H649        H  0.15284924  0.10956257  0.22887855     0.15300
C650        C  0.15960242  0.05140908  0.24234916    -0.23700
H651        H  0.11077471  0.12947667  0.35353410     0.05500
H652        H  0.09542281  0.15088981  0.31703111     0.08700
H653        H  0.13143801  0.15821285  0.33476677     0.08700
H654        H  0.14906980  0.05186251  0.21531102     0.08700
H655        H  0.16006192  0.02728341  0.25125048     0.08700
H656        H  0.18136439  0.05954932  0.24198060     0.05500
C657        C  0.03188935  0.42082064  0.09526569    -0.20300
C658        C  0.01811413  0.43639677  0.11969316    -0.06900
C659        C  0.01273187  0.41944684  0.14999879     0.14000
C660        C  0.01998667  0.38853831  0.15375231    -0.20400
C661        C  0.03597156  0.37440214  0.13099477    -0.06900
C662        C  0.04112783  0.39062135  0.10062486     0.14000
C663        C  0.05810873  0.37741739  0.07482787    -0.23700
H664        H  0.03859519  0.43301971  0.07331417     0.15200
H665        H  0.01540097  0.37629000  0.17703449     0.15300
C666        C  0.00280577  0.43314267  0.18152344    -0.23700
H667        H  0.06024688  0.39339715  0.05263889     0.05500
H668        H  0.04803821  0.35591213  0.06408885     0.08700
H669        H  0.07923667  0.37276855  0.08768448     0.08700
H670        H  0.98235074  0.42281205  0.18516684     0.08700
H671        H  0.00161932  0.45830590  0.18077271     0.08700
H672        H  0.01749707  0.42766577  0.20490817     0.05500
C673        C  0.02777361  0.12298468  0.11879242    -0.20300
C674        C  0.05669808  0.12791564  0.12663372    -0.06900
C675        C  0.07410241  0.10338695  0.12192527     0.14000
C676        C  0.06211644  0.07418948  0.11536627    -0.20400
C677        C  0.03340377  0.06819223  0.11525697    -0.06900
C678        C  0.01603301  0.09368085  0.11156552     0.14000
C679        C  0.98615167  0.09176900  0.09629720    -0.23700
H680        H  0.01399639  0.14213055  0.11829161     0.15200
H681        H  0.07564561  0.05527834  0.11278795     0.15300
C682        C  0.10516105  0.10705824  0.12470998    -0.23700
H683        H  0.98308835  0.10720687  0.07313650     0.05500
H684        H  0.97273793  0.09953343  0.11535254     0.08700
H685        H  0.97962192  0.06853109  0.08708205     0.08700
H686        H  0.11376054  0.11331691  0.15152824     0.08700
H687        H  0.11085925  0.12492808  0.10591488     0.08700
H688        H  0.11503568  0.08547916  0.11865901     0.05500
C689        C  0.73641784  0.99570033  0.22026926    -0.20300
C690        C  0.71869293  0.48640279  0.18852774    -0.06900
C691        C  0.73220821  0.48247056  0.15859644     0.14000
C692        C  0.76082037  0.48930089  0.16002151    -0.20400
C693        C  0.77628185  0.50022849  0.19039566    -0.06900
C694        C  0.76455030  0.00394910  0.22131885     0.14000
C695        C  0.78022735  0.01471541  0.25482983    -0.23700
H696        H  0.72627645  0.99818833  0.24335085     0.15200
H697        H  0.77128960  0.48615530  0.13734559     0.15300
C698        C  0.71657287  0.47198878  0.12482397    -0.23700
H699        H  0.76722165  0.01364427  0.27640405     0.05500
H700        H  0.78703003  0.03890089  0.25152066     0.08700
H701        H  0.79845407  0.00019970  0.26219187     0.08700
H702        H  0.69942559  0.48775422  0.11645594     0.08700
H703        H  0.70816080  0.44836743  0.12812174     0.08700
H704        H  0.73010555  0.47156782  0.10382860     0.05500
C705        C  0.76304751  0.23348198  0.27701739    -0.20300
C706        C  0.77706549  0.22086149  0.30775085    -0.06900
C707        C  0.76113251  0.20955909  0.33357890     0.14000
C708        C  0.73207064  0.21290184  0.32890336    -0.20400
C709        C  0.71858248  0.22785349  0.29935951    -0.06900
C710        C  0.73425655  0.23727148  0.27267177     0.14000
C711        C  0.72069627  0.25180955  0.23974794    -0.23700
H712        H  0.77499096  0.24212291  0.25695291     0.15200
H713        H  0.71987638  0.20487939  0.34895288     0.15300
C714        C  0.77479400  0.19547900  0.36676144    -0.23700
H715        H  0.73546853  0.25563502  0.22038524     0.05500
H716        H  0.71284008  0.27442200  0.24568139     0.08700
H717        H  0.70337935  0.23682562  0.22796162     0.08700
H718        H  0.78946312  0.21239118  0.38056777     0.08700
H719        H  0.78615849  0.17489238  0.36082848     0.08700
H720        H  0.75943473  0.18824814  0.38439439     0.05500
C721        C  0.98415181  0.30714362  0.29882065    -0.20300
C722        C  0.99851080  0.29246620  0.32785880    -0.06900
C723        C  0.01858899  0.27112713  0.32299234     0.14000
C724        C  0.01973512  0.26053201  0.28961276    -0.20400
C725        C  0.00310070  0.27298930  0.26081174    -0.06900
C726        C  0.98627401  0.29794196  0.26527891     0.14000
C727        C  0.97017372  0.31533683  0.23577560    -0.23700
H728        H  0.96923191  0.32400653  0.30195431     0.15200
H729        H  0.03467511  0.24344783  0.28598434     0.15300
C730        C  0.03993038  0.26070278  0.35202193    -0.23700
H731        H  0.94803577  0.31577702  0.23989361     0.05500
H732        H  0.97120525  0.30514276  0.21008688     0.08700
H733        H  0.97827273  0.33938927  0.23518649     0.08700
H734        H  0.04053878  0.23528423  0.35349676     0.08700
H735        H  0.03680875  0.26947631  0.37775681     0.08700
H736        H  0.06031527  0.27010065  0.34693906     0.05500
C737        C  0.86277963  0.11459149  0.26649290    -0.20300
C738        C  0.87975383  0.13672520  0.25249373    -0.06900
C739        C  0.89272065  0.12842371  0.22317066     0.14000
C740        C  0.89022079  0.09781132  0.21129870    -0.20400
C741        C  0.87576678  0.07479087  0.22811825    -0.06900
C742        C  0.86055668  0.08425355  0.25525827     0.14000
C743        C  0.84274338  0.06345041  0.27552188    -0.23700
H744        H  0.85167676  0.12054190  0.28786722     0.15200
H745        H  0.90006989  0.09201114  0.18909100     0.15300
C746        C  0.90950770  0.15121357  0.20420112    -0.23700
H747        H  0.82160765  0.07268273  0.27331952     0.05500
H748        H  0.85136295  0.06335948  0.30336503     0.08700
H749        H  0.84085365  0.03935947  0.26749153     0.08700
H750        H  0.92787274  0.15942552  0.22167536     0.08700
H751        H  0.89654068  0.17087484  0.19460443     0.08700
H752        H  0.91718708  0.14090329  0.18138188     0.05500
C753        C  0.90214428  0.39350192  0.23877142    -0.20300
C754        C  0.87884626  0.38079814  0.25226873    -0.06900
C755        C  0.85452667  0.39776028  0.24934707     0.14000
C756        C  0.85482209  0.42736552  0.23487057    -0.20400
C757        C  0.87831355  0.44114264  0.22201352    -0.06900
C758        C  0.90309892  0.42403931  0.22698243     0.14000
C759        C  0.93192611  0.43769571  0.22719597    -0.23700
H760        H  0.92116723  0.38082437  0.24165784     0.15200
H761        H  0.83742685  0.44099546  0.23854560     0.15300
C762        C  0.82879822  0.38628389  0.26413239    -0.23700
H763        H  0.94522227  0.42996339  0.25092996     0.05500
H764        H  0.93303752  0.46292792  0.22846539     0.08700
H765        H  0.94097736  0.42958272  0.20436533     0.08700
H766        H  0.83346915  0.38220651  0.29253241     0.08700
H767        H  0.82091388  0.36473885  0.25120552     0.08700
H768        H  0.81188261  0.40301524  0.25999491     0.05500
C769        C  0.93486474  0.10876401  0.41011290    -0.20300
C770        C  0.94420534  0.12772323  0.38449593    -0.06900
C771        C  0.96678428  0.11777802  0.36794760     0.14000
C772        C  0.97994751  0.09000639  0.37833259    -0.20400
C773        C  0.97050967  0.07030567  0.40372244    -0.06900
C774        C  0.94703386  0.08030989  0.41960191     0.14000
C775        C  0.93308939  0.06095541  0.44553536    -0.23700
H776        H  0.91771029  0.11634627  0.42283106     0.15200
H777        H  0.99596693  0.08245694  0.36383408     0.15300
C778        C  0.97623389  0.13467377  0.33713791    -0.23700
H779        H  0.91409927  0.07163796  0.45238816     0.05500
H780        H  0.94699740  0.05857071  0.47011870     0.08700
H781        H  0.92652149  0.03812371  0.43492618     0.08700
H782        H  0.99766619  0.14381407  0.34394427     0.08700
H783        H  0.96260764  0.15369712  0.32771531     0.08700
H784        H  0.97591255  0.11864440  0.31519125     0.05500
C785        C  0.93695541  0.43517763  0.42109922    -0.20300
C786        C  0.96415084  0.43877997  0.41144982    -0.06900
C787        C  0.97930027  0.41155545  0.41068028     0.14000
C788        C  0.96534622  0.38254876  0.41196447    -0.20400
C789        C  0.93711204  0.37980475  0.41672152    -0.06900
C790        C  0.92328097  0.40654338  0.42290928     0.14000
C791        C  0.89359188  0.40495568  0.43021177    -0.23700
H792        H  0.92554790  0.45538372  0.42567668     0.15200
H793        H  0.97663114  0.36193730  0.40904684     0.15300
C794        C  0.01016931  0.41188436  0.41208936    -0.23700
H795        H  0.88572119  0.42803466  0.43465836     0.05500
H796        H  0.89187324  0.39055932  0.45378635     0.08700
H797        H  0.88023296  0.39473510  0.40790112     0.08700
H798        H  0.01942898  0.43458586  0.41963579     0.08700
H799        H  0.01609465  0.40470093  0.38681904     0.08700
H800        H  0.01891545  0.39554832  0.43258152     0.05500
C801        C  0.97795723  0.03613610  0.90533532     0.30000
C802        C  0.97634159  0.47197440  0.90586013     0.30000
C803        C  0.95262794  0.02069165  0.88511993    -0.06200
C804        C  0.00209482  0.02008169  0.88951346    -0.07000
C805        C  0.98007428  0.02084905  0.94126568    -0.06900
C806        C  0.95186209  0.48749753  0.88468081    -0.06200
C807        C  0.00086731  0.48704859  0.88763910    -0.07000
C808        C  0.97974360  0.48874478  0.94045856    -0.06900
C809        C  0.93432258  0.47798466  0.85587272    -0.32300
N810        N  0.92365337  0.50312753  0.83870862     0.14200
C811        C  0.93604912  0.03029550  0.85582763    -0.32300
H812        H  0.93472054  0.05365689  0.84606769     0.16200
C813        C  0.02288568  0.47789340  0.87084997    -0.31200
N814        N  0.03795751  0.50292236  0.86137133     0.13000
C815        C  0.02601108  0.02871163  0.87471990    -0.31200
C816        C  0.99038511  0.47949292  0.97332139    -0.31500
N817        N  0.99592707  0.00458608  0.99442702     0.13500
H818        H  0.99419817  0.45602949  0.98169531     0.16100
C819        C  0.99243551  0.02982287  0.97359025    -0.31500
H820        H  0.99938664  0.05287437  0.98074037     0.16100
H821        H  0.03412333  0.05183135  0.87203454     0.16100
H822        H  0.93171576  0.45471360  0.84660004     0.16200
H823        H  0.02768178  0.45462574  0.86572139     0.16100
Zr824      Zr  0.87913577  0.20616855  0.84686758     2.17500
O825        O  0.85547406  0.17415553  0.88673696    -0.51400
O826        O  0.87618667  0.16960284  0.79973059    -0.74600
O827        O  0.82784351  0.20790156  0.83040734    -0.81300
O828        O  0.95368994  0.18236803  0.88274934    -0.83100
O829        O  0.81934197  0.25292996  0.80094935    -0.78700
O830        O  0.90948241  0.16342756  0.87054260    -0.90400
O831        O  0.90316839  0.18715463  0.75990624    -0.76300
O832        O  0.87442977  0.23501877  0.79369645    -0.85800
O833        O  0.92379135  0.21094571  0.82795005    -0.85500
O834        O  0.86347469  0.25611132  0.86070630    -0.72300
O835        O  0.90850992  0.23192319  0.89305639    -0.84400
Zr836      Zr  0.93068157  0.31640631  0.83463419     2.26400
Zr837      Zr  0.86006540  0.28518959  0.80707802     2.06300
Zr838      Zr  0.95317321  0.23712848  0.87271775     2.10000
Zr839      Zr  0.91911184  0.23890964  0.77547909     1.78800
O840        O  0.96939674  0.22828503  0.93380607    -0.93200
O841        O  0.89029767  0.25000416  0.72098698    -0.41000
O842        O  0.94766232  0.26707239  0.81963581    -0.77600
O843        O  0.90460289  0.28874619  0.78740951    -0.96300
O844        O  0.88633724  0.31181178  0.85366897    -0.89600
O845        O  0.93680690  0.28582807  0.88705328    -0.92500
C846        C  0.88757647  0.16645837  0.77182619     1.01300
C847        C  0.93581394  0.16018859  0.87976115     1.14200
C848        C  0.81140084  0.22716249  0.81301550     1.05000
O849        O  0.83343940  0.28970516  0.74993186    -0.94600
O850        O  0.86700161  0.33412929  0.77728101    -0.90400
O851        O  0.91242948  0.34785835  0.78640459    -0.83500
C852        C  0.88762724  0.35196981  0.77224006     1.11600
O853        O  0.85981455  0.25908687  0.94240622    -0.96600
Zr854      Zr  0.89267292  0.28203352  0.90639550     1.88900
O855        O  0.91218975  0.34995763  0.87353707    -0.73200
O856        O  0.82634104  0.31576800  0.83159438    -0.52500
O857        O  0.85639599  0.31665754  0.91715439    -0.97200
O858        O  0.91495906  0.26813442  0.96401867    -0.54400
O859        O  0.91918677  0.32908014  0.92582783    -0.73800
C860        C  0.92295590  0.35137478  0.90485877     0.98600
O861        O  0.95154519  0.36664486  0.82070199    -0.62600
O862        O  0.99425775  0.21747130  0.85202274    -0.57400
O863        O  0.97690154  0.31887928  0.86542463    -0.94100
O864        O  0.99229762  0.27352981  0.88169403    -0.92500
O865        O  0.96377976  0.21676605  0.77062257    -0.92800
O866        O  0.94282327  0.25318372  0.72567988    -0.91600
C867        C  0.99281459  0.29709178  0.86167484     1.17400
H868        H  0.93096623  0.19145130  0.82270517     0.33400
H869        H  0.90404502  0.29866132  0.76496576     0.44200
H870        H  0.94985146  0.29437092  0.90531250     0.37700
H871        H  0.84532723  0.25397736  0.86819974     0.34200
H872        H  0.88807639  0.23017583  0.70879543     0.26000
H873        H  0.81822329  0.32886163  0.81207325     0.32000
H874        H  0.86515455  0.33049152  0.93549907     0.37900
H875        H  0.96038739  0.19427980  0.77137711     0.32300
H876        H  0.00218954  0.20300579  0.87029636     0.31200
H877        H  0.98969795  0.22667424  0.93464914     0.32900
H878        H  0.93205292  0.28110686  0.96742569     0.31800
H879        H  0.94095586  0.23508466  0.71043015     0.35800
H880        H  0.94031616  0.38222389  0.83034680     0.28600
H881        H  0.84328567  0.16000305  0.87172900     0.32800
H882        H  0.85818124  0.23727490  0.93558576     0.35700
H883        H  0.98740643  0.20443293  0.83211238     0.28300
H884        H  0.96977779  0.36860923  0.83492213     0.41100
H885        H  0.81658917  0.30067193  0.75379866     0.31200
H886        H  0.87172977  0.25376872  0.72758392     0.38800
H887        H  0.92159282  0.24711455  0.96165127     0.30700
H888        H  0.81115800  0.30119721  0.83597474     0.30700
H889        H  0.84270347  0.18805266  0.89634047     0.31000
C890        C  0.88023298  0.04003435  0.72085550     0.30000
C891        C  0.87936099  0.47561654  0.71823198     0.30000
C892        C  0.85214754  0.02394960  0.70764639    -0.06200
C893        C  0.90020037  0.02585635  0.69649648    -0.07000
C894        C  0.88965680  0.02305258  0.75474117    -0.06900
C895        C  0.85127246  0.49039921  0.70636327    -0.06200
C896        C  0.89757796  0.49289816  0.69403086    -0.07000
C897        C  0.88829200  0.48979424  0.75367272    -0.06900
C898        C  0.82454290  0.48049139  0.69506145    -0.32300
N899        N  0.80766384  0.50469633  0.69332439     0.14200
C900        C  0.82474199  0.03213085  0.69912370    -0.32300
H901        H  0.81664397  0.05485785  0.70067023     0.16200
C902        C  0.91610019  0.48401108  0.67241089    -0.31200
N903        N  0.93131642  0.50885440  0.66383475     0.13000
C904        C  0.92191942  0.03449286  0.67741956    -0.31200
C905        C  0.89992699  0.47910557  0.78579819    -0.31500
N906        N  0.90784728  0.50371485  0.80578807     0.13500
H907        H  0.90381408  0.45543607  0.79319617     0.16100
C908        C  0.90271249  0.03168281  0.78659774    -0.31500
H909        H  0.90798784  0.05494587  0.79457377     0.16100
H910        H  0.93089590  0.05718558  0.67500628     0.16100
H911        H  0.81726071  0.45718946  0.68977023     0.16200
H912        H  0.91940242  0.46065164  0.66551190     0.16100
C913        C  0.02419722  0.03200176  0.61538824     0.30000
C914        C  0.01689704  0.46943464  0.61570057     0.30000
C915        C  0.04425176  0.01450365  0.64169042    -0.06200
C916        C  0.99591777  0.01968215  0.62573295    -0.07000
C917        C  0.02619215  0.01600528  0.58101645    -0.06900
C918        C  0.04086591  0.48286649  0.64084971    -0.06200
C919        C  0.99161227  0.48777820  0.62462227    -0.07000
C920        C  0.02138213  0.48464268  0.58048285    -0.06900
C921        C  0.05661960  0.47240648  0.67079296    -0.32300
N922        N  0.06962137  0.99735254  0.68931048     0.14200
C923        C  0.06130968  0.02297872  0.67114630    -0.32300
H924        H  0.06591713  0.04624638  0.67957137     0.16200
C925        C  0.96635390  0.48106069  0.63623091    -0.31200
N926        N  0.95550396  0.50737598  0.64668483     0.13000
C927        C  0.97382200  0.03091464  0.64078495    -0.31200
C928        C  0.00948450  0.47727634  0.54736796    -0.31500
N929        N  0.00917698  0.00175464  0.52760844     0.13500
H930        H  0.99987243  0.45534221  0.53991984     0.16100
C931        C  0.01768009  0.02616807  0.54751289    -0.31500
H932        H  0.01503000  0.04989217  0.53944188     0.16100
H933        H  0.97189112  0.05406850  0.64926887     0.16100
H934        H  0.05800223  0.44888866  0.68002020     0.16200
H935        H  0.95743978  0.45828733  0.63864331     0.16100
Zr936      Zr  0.12220567  0.20207355  0.67656818     2.17500
O937        O  0.14005258  0.17453751  0.63038878    -0.51400
O938        O  0.13204176  0.16011838  0.72082241    -0.74600
O939        O  0.17266717  0.21151527  0.67623125    -0.81300
O940        O  0.04832304  0.17204398  0.65089765    -0.83100
O941        O  0.18219133  0.26024453  0.69476890    -0.78700
O942        O  0.09303358  0.16128445  0.64730082    -0.90400
O943        O  0.11991789  0.17639872  0.77153595    -0.76300
O944        O  0.13839687  0.23251305  0.72550476    -0.85800
O945        O  0.08678793  0.19756943  0.71361658    -0.85500
O946        O  0.12652972  0.25443931  0.65497267    -0.72300
O947        O  0.08107639  0.22322622  0.64458991    -0.84400
Zr948      Zr  0.06665223  0.29870765  0.71207849     2.26400
Zr949      Zr  0.14104063  0.28482737  0.70527094     2.06300
Zr950      Zr  0.04583213  0.21830560  0.68244150     2.10000
Zr951      Zr  0.10393737  0.22708845  0.76315079     1.78800
O952        O  0.00662930  0.22591715  0.63804140    -0.93200
O953        O  0.14853542  0.23345370  0.79879498    -0.41000
O954        O  0.06275986  0.24707590  0.73294701    -0.77600
O955        O  0.10747607  0.27885096  0.74480678    -0.96300
O956        O  0.10068307  0.30616603  0.67369773    -0.89600
O957        O  0.05020371  0.27005562  0.66170540    -0.92500
C958        C  0.12828956  0.15576860  0.75308530     1.01300
C959        C  0.06690518  0.15495380  0.64169770     1.14200
C960        C  0.18946527  0.23450866  0.68416047     1.05000
O961        O  0.18065432  0.29712699  0.74786646    -0.94600
O962        O  0.13857339  0.33116104  0.73853677    -0.90400
O963        O  0.09332230  0.33801706  0.74408211    -0.83500
C964        C  0.11893086  0.34545301  0.74991314     1.11600
O965        O  0.09494011  0.25594149  0.56935939    -0.96600
Zr966      Zr  0.08497417  0.27577266  0.62453084     1.88900
O967        O  0.05198818  0.33792019  0.67072639    -0.73200
O968        O  0.15870998  0.32014483  0.66338794    -0.52500
O969        O  0.11853165  0.30720203  0.59712667    -0.97200
O970        O  0.04583112  0.26361724  0.58112520    -0.54400
O971        O  0.05935415  0.32419950  0.61685925    -0.73800
C972        C  0.04975858  0.34248507  0.63795659     0.98600
O973        O  0.04245096  0.32684003  0.75252180    -0.62600
O974        O  0.01959166  0.17592237  0.70590679    -0.57400
O975        O  0.01851425  0.28374815  0.70591386    -0.94100
O976        O  0.01469100  0.23515476  0.72174962    -0.92500
O977        O  0.06997925  0.20194466  0.79596005    -0.92800
O978        O  0.10277651  0.24922421  0.81987641    -0.91600
C979        C  0.01042959  0.26343663  0.72631889     1.17400
H980        H  0.08247236  0.17653927  0.71952537     0.33400
H981        H  0.11278012  0.28956791  0.76619949     0.44200
H982        H  0.03299284  0.27745646  0.64989621     0.37700
H983        H  0.14068029  0.25549777  0.63960438     0.34200
H984        H  0.15994880  0.21650709  0.79243799     0.26000
H985        H  0.15104387  0.34024114  0.66798269     0.32000
H986        H  0.11679807  0.32810524  0.60600890     0.37900
H987        H  0.05621412  0.19246957  0.77813549     0.32300
H988        H  0.00734932  0.16731415  0.68597369     0.31200
H989        H  0.99107447  0.21435938  0.64681478     0.32900
H990        H  0.03077075  0.27693898  0.58625072     0.31800
H991        H  0.10735782  0.23235292  0.83689065     0.35800
H992        H  0.05328812  0.32480567  0.77572772     0.28600
H993        H  0.15560368  0.16247835  0.64188606     0.32800
H994        H  0.10361478  0.23597262  0.57545442     0.35700
H995        H  0.03316203  0.15977624  0.71286389     0.28300
H996        H  0.04373595  0.34887082  0.74600411     0.41100
H997        H  0.19080785  0.31408333  0.73719385     0.31200
H998        H  0.15713628  0.25221983  0.78955214     0.38800
H999        H  0.03966139  0.24264603  0.58743767     0.30700
H1000       H  0.17874254  0.32247553  0.67134344     0.30700
H1001       H  0.14863528  0.19046239  0.61634516     0.31000
C1002       C  0.11941097  0.46551184  0.80510221     0.30000
C1003       C  0.12495302  0.02875466  0.80300639     0.30000
C1004       C  0.10803161  0.48094485  0.77063327    -0.06200
C1005       C  0.10260849  0.48245904  0.83042455    -0.07000
C1006       C  0.14856468  0.47932464  0.81435008    -0.06900
C1007       C  0.11183228  0.01276401  0.77011814    -0.06200
C1008       C  0.10477142  0.01607544  0.82972091    -0.07000
C1009       C  0.15189350  0.01146764  0.81463072    -0.06900
C1010       C  0.09728892  0.02217467  0.73912794    -0.32300
N1011       N  0.08464920  0.49667080  0.72111365     0.14200
C1012       C  0.09146880  0.47150339  0.74101476    -0.32300
H1013       H  0.08438363  0.44824868  0.73505278     0.16200
C1014       C  0.08022255  0.02642946  0.84101671    -0.31200
N1015       N  0.06399783  0.50179467  0.84780173     0.13000
C1016       C  0.07670276  0.47569255  0.84068862    -0.31200
C1017       C  0.18038728  0.01786598  0.81870332    -0.31500
N1018       N  0.19380947  0.48996582  0.81889881     0.13500
H1019       H  0.19027752  0.04008543  0.81540110     0.16100
C1020       C  0.17462547  0.46708802  0.81976781    -0.31500
H1021       H  0.17928167  0.44295005  0.82202591     0.16100
H1022       H  0.06676816  0.45326791  0.83992918     0.16100
H1023       H  0.09427423  0.04570971  0.73056129     0.16200
H1024       H  0.07329268  0.04978039  0.83949318     0.16100
C1025       C  0.52514192  0.27727723  0.58733660     0.30000
C1026       C  0.51996778  0.21453517  0.58598666     0.30000
C1027       C  0.54942330  0.25943020  0.60589522    -0.06200
C1028       C  0.49995875  0.26334663  0.60469092    -0.07000
C1029       C  0.51972621  0.26317850  0.55110245    -0.06900
C1030       C  0.54653274  0.22790422  0.60616728    -0.06200
C1031       C  0.49714897  0.23098766  0.60383059    -0.07000
C1032       C  0.51744616  0.23124444  0.55040037    -0.06900
C1033       C  0.56293489  0.21740248  0.63569413    -0.32300
N1034       N  0.57657480  0.24164334  0.65207173     0.14200
C1035       C  0.56821259  0.26729361  0.63422285    -0.32300
H1036       H  0.57306672  0.29032719  0.64316252     0.16200
C1037       C  0.47186842  0.22365108  0.61586982    -0.31200
N1038       N  0.45974349  0.24971551  0.62489056     0.13000
C1039       C  0.47640366  0.27407697  0.61738146    -0.31200
C1040       C  0.50372517  0.22363954  0.51816192    -0.31500
N1041       N  0.49863199  0.24970695  0.49895147     0.13500
H1042       H  0.49692599  0.20077053  0.51010344     0.16100
C1043       C  0.50661315  0.27389540  0.51961883    -0.31500
H1044       H  0.50209457  0.29758628  0.51299940     0.16100
H1045       H  0.47126953  0.29787720  0.61949104     0.16100
H1046       H  0.56262282  0.19420422  0.64606385     0.16200
H1047       H  0.46192215  0.20128147  0.61606383     0.16100
Zr1048     Zr  0.62583249  0.45078701  0.65592180     2.17500
O1049       O  0.65158596  0.42953689  0.61247943    -0.51400
O1050       O  0.63476914  0.41056824  0.70070325    -0.74600
O1051       O  0.67559396  0.46351289  0.67053121    -0.81300
O1052       O  0.55742685  0.41474705  0.61128487    -0.83100
O1053       O  0.68105088  0.00653993  0.70392411    -0.78700
O1054       O  0.60208257  0.40315062  0.63069729    -0.90400
O1055       O  0.60237204  0.41518507  0.73719062    -0.76300
O1056       O  0.62491358  0.47338104  0.71149395    -0.85800
O1057       O  0.58045790  0.44277731  0.67106429    -0.85500
O1058       O  0.63629302  0.00407926  0.65085994    -0.72300
O1059       O  0.59623173  0.47632201  0.61016915    -0.84400
Zr1060     Zr  0.55778250  0.03664296  0.67872365     2.26400
Zr1061     Zr  0.63500766  0.02554804  0.70690674     2.06300
Zr1062     Zr  0.55075246  0.46626763  0.62524050     2.10000
Zr1063     Zr  0.57948149  0.46328743  0.72633138     1.78800
O1064       O  0.54260618  0.45434418  0.56374445    -0.93200
O1065       O  0.60379868  0.46699725  0.78489894    -0.41000
O1066       O  0.54875099  0.98321412  0.68492637    -0.77600
O1067       O  0.58999656  0.01534378  0.72383009    -0.96300
O1068       O  0.60281439  0.05010837  0.66466483    -0.89600
O1069       O  0.56075268  0.01832493  0.62247402    -0.92500
C1070       C  0.62212739  0.40099078  0.72632944     1.01300
C1071       C  0.57697254  0.39597446  0.61755783     1.14200
C1072       C  0.68954791  0.48599046  0.68608394     1.05000
O1073       O  0.65484671  0.02157217  0.76743920    -0.98200
O1074       O  0.62152223  0.07240016  0.73269310    -0.90400
O1075       O  0.57553815  0.07785687  0.71631928    -0.83500
C1076       C  0.59885264  0.08693193  0.73226478     1.11600
O1077       O  0.63938723  0.02603326  0.56893293    -0.96600
Zr1078     Zr  0.60492598  0.03098384  0.60871582     1.88900
O1079       O  0.54958164  0.08085668  0.64332321    -0.73200
O1080       O  0.66478048  0.06872291  0.69282811    -0.52500
O1081       O  0.63823985  0.07378899  0.60997921    -0.97200
O1082       O  0.58562278  0.02302432  0.54854411    -0.54400
O1083       O  0.57439472  0.07661945  0.59808177    -0.73800
C1084       C  0.55638768  0.09012957  0.61428344     0.98600
O1085       O  0.52461563  0.04874911  0.71813229    -0.62600
O1086       O  0.50909255  0.44084172  0.64195785    -0.57400
O1087       O  0.51165282  0.02746600  0.64617074    -0.94100
O1088       O  0.50986507  0.49304753  0.60363061    -0.92500
O1089       O  0.54438832  0.42348076  0.73330041    -0.92800
O1090       O  0.54816719  0.47953142  0.76629521    -0.91600
C1091       C  0.50008029  0.01057205  0.62100704     1.17400
H1092       H  0.57562373  0.42148981  0.67441740     0.33400
H1093       H  0.58835693  0.02468483  0.74578658     0.44200
H1094       H  0.54788158  0.02754852  0.60468367     0.37700
H1095       H  0.65425702  0.00774848  0.64330644     0.34200
H1096       H  0.62250298  0.45929905  0.78322397     0.26000
H1097       H  0.67751354  0.07238531  0.71433648     0.32000
H1098       H  0.62989479  0.09032660  0.62203088     0.37900
H1099       H  0.54720692  0.41765794  0.75822851     0.32300
H1100       H  0.50695961  0.42139994  0.62901185     0.31200
H1101       H  0.52223970  0.45279841  0.55817238     0.32900
H1102       H  0.58794573  0.04318984  0.53692973     0.31800
H1103       H  0.53337324  0.98609885  0.75284887     0.35800
H1104       H  0.51244093  0.06400883  0.70531136     0.28600
H1105       H  0.66646717  0.41766109  0.62580462     0.32800
H1106       H  0.64686897  0.00532063  0.57399049     0.35700
H1107       H  0.51373498  0.43462059  0.66656239     0.28300
H1108       H  0.51284890  0.02994507  0.71886453     0.41100
H1109       H  0.67057504  0.03658085  0.76959336     0.31200
H1110       H  0.60681698  0.48926737  0.78884843     0.38800
H1111       H  0.56542212  0.02053557  0.54901804     0.30700
H1112       H  0.67660430  0.06078323  0.67620327     0.30700
H1113       H  0.66111952  0.44745050  0.60274059     0.31000
C1114       C  0.61713060  0.21072713  0.77479655     0.30000
C1115       C  0.62520015  0.27317520  0.77001704     0.30000
C1116       C  0.60971802  0.22556959  0.73840236    -0.06200
C1117       C  0.60089601  0.22997139  0.79788584    -0.07000
C1118       C  0.64725092  0.22246560  0.78396635    -0.06900
C1119       C  0.61294059  0.25712528  0.73650820    -0.06200
C1120       C  0.60403799  0.26194608  0.79525798    -0.07000
C1121       C  0.65122623  0.25429107  0.78253833    -0.06900
C1122       C  0.60142060  0.26646358  0.70388159    -0.32300
N1123       N  0.59208343  0.24128547  0.68542167     0.14200
C1124       C  0.59749280  0.21613159  0.70598069    -0.32300
H1125       H  0.59189813  0.19288961  0.69828515     0.16200
C1126       C  0.58079408  0.27348570  0.80842176    -0.31200
N1127       N  0.56561082  0.24977777  0.82077492     0.13000
C1128       C  0.57778857  0.22328701  0.81409403    -0.31200
C1129       C  0.67957986  0.26014680  0.78784537    -0.31500
N1130       N  0.69277444  0.23294213  0.79104345     0.13500
H1131       H  0.68984937  0.28246895  0.78742134     0.16100
C1132       C  0.67332767  0.21002930  0.78739152    -0.31500
H1133       H  0.67813562  0.18629626  0.78461117     0.16100
H1134       H  0.56947667  0.20047042  0.81830302     0.16100
H1135       H  0.59915696  0.28998986  0.69495347     0.16200
H1136       H  0.57417422  0.29696896  0.80667391     0.16100
C1137       C  0.47803726  0.28403975  0.87234973     0.30000
C1138       C  0.47642472  0.22088540  0.87259668     0.30000
C1139       C  0.45376787  0.26856916  0.84950985    -0.06200
C1140       C  0.50357987  0.26865834  0.85898295    -0.07000
C1141       C  0.47768782  0.26799217  0.90818875    -0.06900
C1142       C  0.45315428  0.23682731  0.84936320    -0.06200
C1143       C  0.50210239  0.23629317  0.85860682    -0.07000
C1144       C  0.47621384  0.23591256  0.90792993    -0.06900
C1145       C  0.43799427  0.22808827  0.81852840    -0.32300
N1146       N  0.42837833  0.25344756  0.80081376     0.14200
C1147       C  0.43833943  0.27832439  0.81905634    -0.32300
H1148       H  0.43661059  0.30176754  0.80960865     0.16200
C1149       C  0.52399434  0.22675476  0.84244162    -0.31200
N1150       N  0.54020389  0.25141809  0.83532990     0.13000
C1151       C  0.52815976  0.27711246  0.84545973    -0.31200
C1152       C  0.48541054  0.22552495  0.94105323    -0.31500
N1153       N  0.49218500  0.24998419  0.96170936     0.13500
H1154       H  0.48926050  0.20186399  0.94854063     0.16100
C1155       C  0.48889959  0.27584916  0.94157922    -0.31500
H1156       H  0.49595757  0.29861629  0.94974412     0.16100
H1157       H  0.53697513  0.29999347  0.84352954     0.16100
H1158       H  0.43616307  0.20500772  0.80865738     0.16200
H1159       H  0.52726878  0.20357471  0.83514745     0.16100
Zr1160     Zr  0.37668721  0.45017151  0.80726377     2.17500
O1161       O  0.36184390  0.42083148  0.85598693    -0.51400
O1162       O  0.36515278  0.41060249  0.76314452    -0.74600
O1163       O  0.32648430  0.45755268  0.81264829    -0.81300
O1164       O  0.45126784  0.42379896  0.81503078    -0.83100
O1165       O  0.31494115  0.00705710  0.80029455    -0.78700
O1166       O  0.40924097  0.40912299  0.82978205    -0.90400
O1167       O  0.36683127  0.43144285  0.70965017    -0.76300
O1168       O  0.35506725  0.48219452  0.76122954    -0.85800
O1169       O  0.40803701  0.44978790  0.76460573    -0.85500
O1170       O  0.37419950  0.00169762  0.83235355    -0.72300
O1171       O  0.42048010  0.47070872  0.83490957    -0.84400
Zr1172     Zr  0.42601713  0.05396080  0.77052754     2.26400
Zr1173     Zr  0.35491505  0.03488211  0.78565780     2.06300
Zr1174     Zr  0.44963938  0.47425199  0.78981103     2.10000
Zr1175     Zr  0.38612364  0.48222010  0.71985298     1.78800
O1176       O  0.49341249  0.48509189  0.82548776    -0.93200
O1177       O  0.33937944  0.48778502  0.69035869    -0.41000
O1178       O  0.41701830  0.00332308  0.76400663    -0.77600
O1179       O  0.38313313  0.03428218  0.73954861    -0.96300
O1180       O  0.39701224  0.05600743  0.81462755    -0.89600
O1181       O  0.44934054  0.02427462  0.81616529    -0.92500
C1182       C  0.36383966  0.40852256  0.72991298     1.01300
C1183       C  0.43527243  0.40449144  0.82821276     1.14200
C1184       C  0.31000866  0.48062993  0.81125071     1.05000
O1185       O  0.31048622  0.05080884  0.75620520    -0.94600
O1186       O  0.35566485  0.08330189  0.75187840    -0.90400
O1187       O  0.39912171  0.09151936  0.73755487    -0.83500
C1188       C  0.37374713  0.09837272  0.73615289     1.11600
O1189       O  0.40638433  0.99745432  0.91233834    -0.96600
Zr1190     Zr  0.41789683  0.02213198  0.85903146     1.88900
O1191       O  0.43849432  0.09336542  0.81340058    -0.73200
O1192       O  0.34661344  0.06633988  0.83420973    -0.52500
O1193       O  0.39233109  0.04973415  0.89814160    -0.97200
O1194       O  0.46073400  0.00761541  0.89408915    -0.54400
O1195       O  0.44087270  0.07207061  0.86737853    -0.73800
C1196       C  0.44410796  0.09456047  0.84644310     0.98600
O1197       O  0.46571636  0.08277205  0.75318411    -0.62600
O1198       O  0.48351613  0.45420848  0.75543642    -0.57400
O1199       O  0.45706316  0.03798542  0.73171559    -0.94100
O1200       O  0.45188400  0.48833598  0.72946920    -0.92500
O1201       O  0.41400321  0.45105244  0.68744802    -0.92800
O1202       O  0.39668646  0.51120799  0.66870332    -0.91600
C1203       C  0.45555630  0.01244723  0.71632985     1.17400
H1204       H  0.41230773  0.42975312  0.75678469     0.33400
H1205       H  0.37587471  0.04485897  0.71851989     0.44200
H1206       H  0.46724522  0.03334513  0.82408081     0.37700
H1207       H  0.36176494  0.00086271  0.84992582     0.34200
H1208       H  0.33937157  0.50863011  0.67977348     0.26000
H1209       H  0.34269621  0.08690213  0.82378970     0.32000
H1210       H  0.40663178  0.05994085  0.91471912     0.37900
H1211       H  0.40256012  0.44701048  0.66504590     0.32300
H1212       H  0.49927170  0.44800729  0.77240922     0.31200
H1213       H  0.49996870  0.46468097  0.83396140     0.32900
H1214       H  0.46055838  0.01842287  0.91625162     0.31800
H1215       H  0.38083196  0.02266876  0.66250207     0.35800
H1216       H  0.45984207  0.10436218  0.75121333     0.28600
H1217       H  0.34459269  0.40974045  0.84666504     0.32800
H1218       H  0.40138237  0.97599647  0.90576415     0.35700
H1219       H  0.47517535  0.43460297  0.74617655     0.28300
H1220       H  0.47984020  0.08228295  0.77383781     0.41100
H1221       H  0.30930001  0.04161111  0.73293480     0.31200
H1222       H  0.33818216  0.47382490  0.67038238     0.38800
H1223       H  0.47579234  0.01812890  0.88316706     0.30700
H1224       H  0.32863555  0.05863089  0.84074681     0.30700
H1225       H  0.35596582  0.43642032  0.87159605     0.31000
C1226       C  0.37623971  0.22127630  0.68620442     0.30000
C1227       C  0.37661977  0.28392358  0.68316046     0.30000
C1228       C  0.38939594  0.23766141  0.71856351    -0.06200
C1229       C  0.39389488  0.23557673  0.65854453    -0.07000
C1230       C  0.34858634  0.23580030  0.67555852    -0.06900
C1231       C  0.38944580  0.26906905  0.71753889    -0.06200
C1232       C  0.39464456  0.26854484  0.65714484    -0.07000
C1233       C  0.34831855  0.26713096  0.67448833    -0.06900
C1234       C  0.40444527  0.27888910  0.74824327    -0.32300
N1235       N  0.41305558  0.25372821  0.76746073     0.14200
C1236       C  0.40430495  0.22843706  0.74918533    -0.32300
H1237       H  0.40854796  0.20499105  0.75721567     0.16200
C1238       C  0.42011092  0.27656684  0.64550146    -0.31200
N1239       N  0.43336243  0.25089814  0.63751610     0.13000
C1240       C  0.41814721  0.22612818  0.64694960    -0.31200
C1241       C  0.32059046  0.27486714  0.66952382    -0.31500
N1242       N  0.30463095  0.24862891  0.66791040     0.13500
H1243       H  0.31267605  0.29781646  0.66925823     0.16100
C1244       C  0.32169354  0.22467939  0.67056743    -0.31500
H1245       H  0.31494277  0.20088125  0.67234285     0.16100
H1246       H  0.42538867  0.20288747  0.64857596     0.16100
H1247       H  0.40910635  0.30245927  0.75553271     0.16200
H1248       H  0.42930280  0.29940316  0.64563532     0.16100
C1249       C  0.37442942  0.37336187  0.68320084    -0.20300
C1250       C  0.36232970  0.37753440  0.71410682    -0.06900
C1251       C  0.35178364  0.35154963  0.73060710     0.14000
C1252       C  0.35620417  0.32256476  0.71816097    -0.20400
C1253       C  0.37100770  0.31781934  0.68952399    -0.06900
C1254       C  0.37793292  0.34394796  0.66998193     0.14000
C1255       C  0.38681075  0.34226329  0.63439354    -0.23700
H1256       H  0.38143396  0.39320317  0.66914876     0.15200
H1257       H  0.34862626  0.30285165  0.73198377     0.15300
C1258       C  0.33584880  0.35372417  0.76140439    -0.23700
H1259       H  0.37399768  0.35776599  0.61637979     0.05500
H1260       H  0.38345534  0.31915020  0.62328715     0.08700
H1261       H  0.40882283  0.34978931  0.63514376     0.08700
H1262       H  0.31865830  0.36989864  0.75532713     0.08700
H1263       H  0.34971491  0.36141744  0.78460147     0.08700
H1264       H  0.32663940  0.33116208  0.76828857     0.05500
C1265       C  0.37836153  0.16448318  0.67430426    -0.20300
C1266       C  0.37081817  0.18778142  0.69515656    -0.06900
C1267       C  0.35643499  0.17942507  0.72448600     0.14000
C1268       C  0.35486621  0.14886555  0.73485007    -0.20400
C1269       C  0.36594965  0.12631879  0.71662391    -0.06900
C1270       C  0.37543994  0.13365190  0.68439286     0.14000
C1271       C  0.38204060  0.10947095  0.65992708    -0.23700
H1272       H  0.38640601  0.17014521  0.65016169     0.15200
H1273       H  0.34672038  0.14289422  0.75897925     0.15300
C1274       C  0.34311142  0.20123168  0.74719108    -0.23700
H1275       H  0.36814332  0.11171576  0.63515887     0.05500
H1276       H  0.37911528  0.08589268  0.67031988     0.08700
H1277       H  0.40362998  0.11304853  0.65441712     0.08700
H1278       H  0.32097182  0.19441809  0.74720219     0.08700
H1279       H  0.34350525  0.22562363  0.73936399     0.08700
H1280       H  0.35348806  0.19959540  0.77426321     0.05500
C1281       C  0.48390141  0.33616012  0.84412968    -0.20300
C1282       C  0.47242365  0.31889476  0.86993476    -0.06900
C1283       C  0.44887826  0.33140891  0.88312117     0.14000
C1284       C  0.43774360  0.35933016  0.86951249    -0.20400
C1285       C  0.44864870  0.37546728  0.84261329    -0.06900
C1286       C  0.47262908  0.36375247  0.83029397     0.14000
C1287       C  0.48586287  0.37873254  0.80078273    -0.23700
H1288       H  0.50019884  0.32674877  0.83178037     0.15200
H1289       H  0.41984553  0.36834078  0.87951877     0.15300
C1290       C  0.43376140  0.31498222  0.91005314    -0.23700
H1291       H  0.50268082  0.36486877  0.79269018     0.05500
H1292       H  0.49540315  0.40124674  0.80894273     0.08700
H1293       H  0.47016620  0.38156453  0.77775549     0.08700
H1294       H  0.44734242  0.31345822  0.93500145     0.08700
H1295       H  0.42643233  0.29181726  0.90115622     0.08700
H1296       H  0.41520121  0.32744407  0.91537398     0.05500
C1297       C  0.48168730  0.13255532  0.86603460    -0.20300
C1298       C  0.45342224  0.12452779  0.86091772    -0.06900
C1299       C  0.43399576  0.14599800  0.86804122     0.14000
C1300       C  0.44294740  0.17616013  0.87545508    -0.20400
C1301       C  0.47074437  0.18593069  0.87431759    -0.06900
C1302       C  0.49066338  0.16270866  0.87501177     0.14000
C1303       C  0.52043801  0.16744194  0.88981743    -0.23700
H1304       H  0.49677426  0.11512870  0.86375600     0.15200
H1305       H  0.42766408  0.19277979  0.87980832     0.15300
C1306       C  0.40370748  0.13734971  0.86674361    -0.23700
H1307       H  0.52508926  0.15160052  0.91239761     0.05500
H1308       H  0.52496895  0.19095473  0.89962403     0.08700
H1309       H  0.53430510  0.16193482  0.87030421     0.08700
H1310       H  0.40098319  0.11858146  0.88585348     0.08700
H1311       H  0.39548225  0.12947483  0.84036174     0.08700
H1312       H  0.39131896  0.15702468  0.87306573     0.05500
C1313       C  0.45808819  0.03742446  0.62240814    -0.20300
C1314       C  0.46978889  0.01082108  0.61226553    -0.06900
C1315       C  0.45930512  0.98386269  0.62639638     0.14000
C1316       C  0.45812219  0.98394418  0.66214922    -0.20400
C1317       C  0.45696917  0.01237186  0.67872965    -0.06900
C1318       C  0.45366000  0.03945020  0.65732622     0.14000
C1319       C  0.44603774  0.06994479  0.67015438    -0.23700
H1320       H  0.45760052  0.05756052  0.60564806     0.15200
H1321       H  0.45823768  0.96238183  0.67641076     0.15300
C1322       C  0.45399019  0.95523422  0.60546043    -0.23700
H1323       H  0.46338626  0.07958930  0.68811178     0.05500
H1324       H  0.42707562  0.06732473  0.68317555     0.08700
H1325       H  0.44197054  0.08666896  0.64839816     0.08700
H1326       H  0.44810507  0.93553229  0.62183586     0.08700
H1327       H  0.47062842  0.45422342  0.58927111     0.08700
H1328       H  0.43670437  0.95915164  0.58456303     0.05500
C1329       C  0.64339281  0.34972270  0.72528941    -0.20300
C1330       C  0.62918325  0.37055671  0.74312825    -0.06900
C1331       C  0.62003357  0.36060366  0.77504451     0.14000
C1332       C  0.62155234  0.32943858  0.78490142    -0.20400
C1333       C  0.63124340  0.30755368  0.76369611    -0.06900
C1334       C  0.64510467  0.31865722  0.73532525     0.14000
C1335       C  0.66105258  0.29893509  0.71357617    -0.23700
H1336       H  0.65209871  0.35725488  0.70207147     0.15200
H1337       H  0.61472331  0.32224383  0.80923416     0.15300
C1338       C  0.60869577  0.38229125  0.79929727    -0.23700
H1339       H  0.65161758  0.29999063  0.68606783     0.05500
H1340       H  0.68267283  0.30800138  0.71497594     0.08700
H1341       H  0.66187711  0.27456101  0.72160432     0.08700
H1342       H  0.58813201  0.39036709  0.78795335     0.08700
H1343       H  0.62333387  0.40206229  0.80481705     0.08700
H1344       H  0.60577162  0.37098594  0.82450984     0.05500
C1345       C  0.62243240  0.12330968  0.77587332    -0.20300
C1346       C  0.59982741  0.11656244  0.75066272    -0.06900
C1347       C  0.57897991  0.13876404  0.74346790     0.14000
C1348       C  0.58352611  0.16780123  0.75788192    -0.20400
C1349       C  0.60932335  0.17647288  0.77559736    -0.06900
C1350       C  0.62646406  0.15271878  0.79003113     0.14000
C1351       C  0.64521800  0.15597013  0.82364609    -0.23700
H1352       H  0.63672006  0.10548229  0.78509912     0.15200
H1353       H  0.56816548  0.18515921  0.75131675     0.15300
C1354       C  0.55281327  0.13359160  0.71882872    -0.23700
H1355       H  0.66659240  0.14943470  0.82050446     0.05500
H1356       H  0.63766367  0.14006587  0.84329698     0.08700
H1357       H  0.64513759  0.17940074  0.83422976     0.08700
H1358       H  0.54017188  0.11453031  0.72861950     0.08700
H1359       H  0.55805766  0.12850939  0.69254611     0.08700
H1360       H  0.53968805  0.15413531  0.71609288     0.05500
C1361       C  0.53048390  0.32639558  0.61981471    -0.20300
C1362       C  0.53451017  0.31124721  0.58925177    -0.06900
C1363       C  0.55628643  0.32314259  0.57032064     0.14000
C1364       C  0.57134928  0.34992295  0.58136678    -0.20400
C1365       C  0.56731137  0.36402199  0.61202028    -0.06900
C1366       C  0.54720252  0.35154514  0.63201267     0.14000
C1367       C  0.54408444  0.36402958  0.66723689    -0.23700
H1368       H  0.51629894  0.31658260  0.63652627     0.15200
H1369       H  0.58632460  0.36015484  0.56581423     0.15300
C1370       C  0.56538937  0.30766761  0.53930433    -0.23700
H1371       H  0.52857959  0.35056657  0.68036791     0.05500
H1372       H  0.53720796  0.38796672  0.66478087     0.08700
H1373       H  0.56421941  0.36318784  0.68405370     0.08700
H1374       H  0.57070011  0.28346349  0.54556264     0.08700
H1375       H  0.54926675  0.30933289  0.51677194     0.08700
H1376       H  0.58423439  0.31893980  0.53087411     0.05500
C1377       C  0.50917166  0.15936349  0.60377705    -0.20300
C1378       C  0.52382877  0.17961307  0.58401027    -0.06900
C1379       C  0.54652065  0.16756572  0.56856780     0.14000
C1380       C  0.55559697  0.13769773  0.57724134    -0.20400
C1381       C  0.54265465  0.11888144  0.60016566    -0.06900
C1382       C  0.51779392  0.12928814  0.61155128     0.14000
C1383       C  0.50003692  0.10934437  0.63250163    -0.23700
H1384       H  0.49210054  0.16734243  0.61573530     0.15200
H1385       H  0.57388764  0.12957622  0.56736532     0.15300
C1386       C  0.56265410  0.18609518  0.54414815    -0.23700
H1387       H  0.47938000  0.11924318  0.63329304     0.05500
H1388       H  0.50986776  0.10698880  0.65968574     0.08700
H1389       H  0.49684791  0.08653000  0.62045592     0.08700
H1390       H  0.57163817  0.20748409  0.55626265     0.08700
H1391       H  0.54919861  0.19151216  0.51985049     0.08700
H1392       H  0.58019060  0.17317365  0.53645073     0.05500
C1393       C  0.24223407  0.49755310  0.84458609    -0.20300
C1394       C  0.22305867  0.48538752  0.81820003    -0.06900
C1395       C  0.23170630  0.97451115  0.79039525     0.14000
C1396       C  0.25995681  0.96962113  0.78876130    -0.20400
C1397       C  0.28078554  0.47675162  0.81820151    -0.06900
C1398       C  0.27088209  0.49358507  0.84484347     0.14000
C1399       C  0.29064696  0.50778513  0.87342736    -0.23700
H1400       H  0.23468797  0.51047544  0.86487693     0.15200
H1401       H  0.26666138  0.96248973  0.76461036     0.15300
C1402       C  0.21116670  0.96814592  0.75898524    -0.23700
H1403       H  0.27952478  0.51936768  0.89262317     0.05500
H1404       H  0.30438150  0.52520178  0.86256765     0.08700
H1405       H  0.30344738  0.48964972  0.88728999     0.08700
H1406       H  0.19956355  0.98917865  0.75099444     0.08700
H1407       H  0.19656607  0.94945639  0.76504535     0.08700
H1408       H  0.22145325  0.96071233  0.73668289     0.05500
C1409       C  0.23751214  0.25001019  0.70567633    -0.20300
C1410       C  0.21959432  0.23314001  0.68130957    -0.06900
C1411       C  0.23049627  0.22046556  0.65280014     0.14000
C1412       C  0.25843228  0.22668685  0.64838251    -0.20400
C1413       C  0.27565529  0.24528974  0.67164639    -0.06900
C1414       C  0.26523316  0.25614859  0.70131768     0.14000
C1415       C  0.28343006  0.27335521  0.72913325    -0.23700
H1416       H  0.22951234  0.25919836  0.72808962     0.15200
H1417       H  0.26698869  0.21711793  0.62659966     0.15300
C1418       C  0.21280255  0.20111138  0.62666175    -0.23700
H1419       H  0.27235352  0.27803090  0.75173864     0.05500
H1420       H  0.29023694  0.29581825  0.71883668     0.08700
H1421       H  0.30175910  0.25962876  0.73860845     0.08700
H1422       H  0.19518620  0.21460023  0.61422582     0.08700
H1423       H  0.20493636  0.18040865  0.63977702     0.08700
H1424       H  0.22464965  0.19329865  0.60593283     0.05500
C1425       C  0.13761227  0.42624831  0.76981227    -0.20300
C1426       C  0.12261777  0.43149778  0.79821132    -0.06900
C1427       C  0.11276614  0.40575033  0.81605547     0.14000
C1428       C  0.11320245  0.37681131  0.80074417    -0.20400
C1429       C  0.12539066  0.37303532  0.77005553    -0.06900
C1430       C  0.13913461  0.39769437  0.75560548     0.14000
C1431       C  0.15326330  0.39483324  0.72333956    -0.23700
H1432       H  0.14704361  0.44545935  0.75704815     0.15200
H1433       H  0.10373029  0.35709221  0.81254386     0.15300
C1434       C  0.10355579  0.40711491  0.85145720    -0.23700
H1435       H  0.16219791  0.41713581  0.71513206     0.05500
H1436       H  0.13813548  0.38658434  0.70153948     0.08700
H1437       H  0.17044029  0.37852685  0.72831603     0.08700
H1438       H  0.08103821  0.40172555  0.84988842     0.08700
H1439       H  0.10865319  0.42951108  0.86381198     0.08700
H1440       H  0.11476325  0.38979479  0.86876930     0.05500
C1441       C  0.11989513  0.08545222  0.81259828    -0.20300
C1442       C  0.13090843  0.06258107  0.79434360    -0.06900
C1443       C  0.14588586  0.07181368  0.76598373     0.14000
C1444       C  0.14609293  0.10261072  0.75479867    -0.20400
C1445       C  0.13173527  0.12476231  0.77024813    -0.06900
C1446       C  0.11926648  0.11605715  0.80069031     0.14000
C1447       C  0.10351348  0.13785690  0.82019671    -0.23700
H1448       H  0.11074812  0.07928950  0.83574910     0.15200
H1449       H  0.15658081  0.10904480  0.73256523     0.15300
C1450       C  0.16091567  0.05036449  0.74490861    -0.23700
H1451       H  0.09506841  0.12657964  0.84268219     0.05500
H1452       H  0.08558148  0.14641582  0.80268200     0.08700
H1453       H  0.11728866  0.15709305  0.83062769     0.08700
H1454       H  0.15227266  0.05220058  0.71713755     0.08700
H1455       H  0.15959000  0.02590869  0.75226013     0.08700
H1456       H  0.18319247  0.05719582  0.74734460     0.05500
C1457       C  0.03188623  0.41893728  0.59196193    -0.20300
C1458       C  0.01797902  0.43382531  0.61691180    -0.06900
C1459       C  0.01178643  0.41570115  0.64601044     0.14000
C1460       C  0.01881358  0.38467241  0.64847190    -0.20400
C1461       C  0.03533542  0.37138803  0.62574058    -0.06900
C1462       C  0.04058657  0.38836242  0.59594585     0.14000
C1463       C  0.05670843  0.37527233  0.56918355    -0.23700
H1464       H  0.03882427  0.43179961  0.57056068     0.15200
H1465       H  0.01369560  0.37155069  0.67094443     0.15300
C1466       C  0.00086446  0.42806618  0.67751508    -0.23700
H1467       H  0.05883224  0.39172362  0.54741391     0.05500
H1468       H  0.04586525  0.35429863  0.55807079     0.08700
H1469       H  0.07783814  0.36958667  0.58122981     0.08700
H1470       H  0.97940341  0.41922448  0.67822127     0.08700
H1471       H  0.00176860  0.45325746  0.67904799     0.08700
H1472       H  0.01370461  0.41996008  0.70142457     0.05500
C1473       C  0.02759896  0.12045324  0.61816307    -0.20300
C1474       C  0.05653803  0.12538547  0.62551968    -0.06900
C1475       C  0.07390011  0.10108859  0.61958184     0.14000
C1476       C  0.06191134  0.07197968  0.61248982    -0.20400
C1477       C  0.03331567  0.06586442  0.61302125    -0.06900
C1478       C  0.01585910  0.09127501  0.61035990     0.14000
C1479       C  0.98588671  0.08955490  0.59544014    -0.23700
H1480       H  0.01380216  0.13949902  0.61846003     0.15200
H1481       H  0.07537143  0.05313130  0.60928890     0.15300
C1482       C  0.10491742  0.10482887  0.62167873    -0.23700
H1483       H  0.98260192  0.10553423  0.57277828     0.05500
H1484       H  0.97263352  0.09681765  0.61492045     0.08700
H1485       H  0.97934301  0.06652490  0.58554958     0.08700
H1486       H  0.11391332  0.11040451  0.64855195     0.08700
H1487       H  0.11031062  0.12319934  0.60329937     0.08700
H1488       H  0.11466203  0.08347790  0.61460576     0.05500
C1489       C  0.73852838  0.99613263  0.72048612    -0.20300
C1490       C  0.72030029  0.48769315  0.68772721    -0.06900
C1491       C  0.73453378  0.48221540  0.65879132     0.14000
C1492       C  0.76313712  0.48914416  0.66083772    -0.20400
C1493       C  0.77794905  0.50136290  0.69096020    -0.06900
C1494       C  0.76683837  0.00347564  0.72123978     0.14000
C1495       C  0.78345231  0.01171441  0.75512395    -0.23700
H1496       H  0.72878662  0.99814093  0.74394920     0.15200
H1497       H  0.77418086  0.48482467  0.63892670     0.15300
C1498       C  0.71976815  0.46971184  0.62550004    -0.23700
H1499       H  0.77090614  0.00968934  0.77710629     0.05500
H1500       H  0.79096061  0.03579111  0.75352303     0.08700
H1501       H  0.80125248  0.99626026  0.76067996     0.08700
H1502       H  0.70275074  0.48503221  0.61522048     0.08700
H1503       H  0.71133469  0.44634874  0.63034069     0.08700
H1504       H  0.73389624  0.46791533  0.60530148     0.05500
C1505       C  0.76724232  0.23210307  0.77423534    -0.20300
C1506       C  0.78075699  0.22155960  0.80633722    -0.06900
C1507       C  0.76435077  0.21279307  0.83273072     0.14000
C1508       C  0.73532170  0.21612876  0.82683427    -0.20400
C1509       C  0.72232611  0.22854631  0.79548082    -0.06900
C1510       C  0.73844180  0.23563193  0.76855153     0.14000
C1511       C  0.72520333  0.24683827  0.73372587    -0.23700
H1512       H  0.77953132  0.23887747  0.75377110     0.15200
H1513       H  0.72272628  0.21002056  0.84717220     0.15300
C1514       C  0.77740410  0.20145430  0.86761212    -0.23700
H1515       H  0.74061150  0.25049578  0.71512184     0.05500
H1516       H  0.71524376  0.26900370  0.73660493     0.08700
H1517       H  0.70941974  0.22970454  0.72263255     0.08700
H1518       H  0.79193917  0.21927962  0.87990556     0.08700
H1519       H  0.78881097  0.18021494  0.86441513     0.08700
H1520       H  0.76165884  0.19604010  0.88536612     0.05500
C1521       C  0.98717461  0.30786568  0.79860326    -0.20300
C1522       C  0.00213229  0.29366013  0.82752089    -0.06900
C1523       C  0.02235261  0.27263289  0.82234501     0.14000
C1524       C  0.02282940  0.26149645  0.78906347    -0.20400
C1525       C  0.00538181  0.27314601  0.76053250    -0.06900
C1526       C  0.98853623  0.29807444  0.76509152     0.14000
C1527       C  0.97136388  0.31461038  0.73579563    -0.23700
H1528       H  0.97216320  0.32453812  0.80190897     0.15200
H1529       H  0.03776752  0.24456688  0.78524443     0.15300
C1530       C  0.04438152  0.26304766  0.85092804    -0.23700
H1531       H  0.94933927  0.31400187  0.74052118     0.05500
H1532       H  0.97231837  0.30442304  0.71009974     0.08700
H1533       H  0.97856563  0.33897507  0.73472988     0.08700
H1534       H  0.04457846  0.23769413  0.85390023     0.08700
H1535       H  0.04208567  0.27326349  0.87627948     0.08700
H1536       H  0.06466004  0.27148782  0.84417827     0.05500
C1537       C  0.86469579  0.11494242  0.76606357    -0.20300
C1538       C  0.88298808  0.13637420  0.75334229    -0.06900
C1539       C  0.89723211  0.12742033  0.72538597     0.14000
C1540       C  0.89399523  0.09702891  0.71305875    -0.20400
C1541       C  0.87807514  0.07455908  0.72859767    -0.06900
C1542       C  0.86227855  0.08455065  0.75496777     0.14000
C1543       C  0.84382736  0.06420763  0.77484025    -0.23700
H1544       H  0.85287362  0.12140610  0.78657082     0.15200
H1545       H  0.90469811  0.09090188  0.69176679     0.15300
C1546       C  0.91651481  0.14911970  0.70868343    -0.23700
H1547       H  0.82276114  0.07368521  0.77184040     0.05500
H1548       H  0.85191659  0.06431805  0.80286687     0.08700
H1549       H  0.84196060  0.04003849  0.76710256     0.08700
H1550       H  0.93408653  0.15628865  0.72804538     0.08700
H1551       H  0.90512702  0.16951031  0.69778847     0.08700
H1552       H  0.92542069  0.13824959  0.68707586     0.05500
C1553       C  0.90643611  0.39413161  0.73830253    -0.20300
C1554       C  0.88309989  0.37959937  0.74980336    -0.06900
C1555       C  0.85791186  0.39514067  0.74613746     0.14000
C1556       C  0.85730443  0.42510667  0.73284182    -0.20400
C1557       C  0.88084327  0.44071511  0.72265600    -0.06900
C1558       C  0.90646679  0.42516420  0.72863210     0.14000
C1559       C  0.93484261  0.44070817  0.73255965    -0.23700
H1560       H  0.92605762  0.38259462  0.74181289     0.15200
H1561       H  0.83906974  0.43751253  0.73579733     0.15300
C1562       C  0.83205116  0.38189751  0.75917273    -0.23700
H1563       H  0.94679434  0.43308114  0.75733412     0.05500
H1564       H  0.93474210  0.46589235  0.73436957     0.08700
H1565       H  0.94625800  0.43409250  0.71105976     0.08700
H1566       H  0.83591161  0.37771787  0.78761593     0.08700
H1567       H  0.82558200  0.36022824  0.74558451     0.08700
H1568       H  0.81440380  0.39763304  0.75435386     0.05500
C1569       C  0.93759518  0.11060470  0.91232724    -0.20300
C1570       C  0.94730698  0.12901181  0.88657492    -0.06900
C1571       C  0.96946905  0.11837196  0.86977981     0.14000
C1572       C  0.98160871  0.09007302  0.87977362    -0.20400
C1573       C  0.97159059  0.07079509  0.90506562    -0.06900
C1574       C  0.94877452  0.08172558  0.92151801     0.14000
C1575       C  0.93438087  0.06304393  0.94762507    -0.23700
H1576       H  0.92083271  0.11892520  0.92526397     0.15200
H1577       H  0.99718299  0.08190270  0.86500464     0.15300
C1578       C  0.97954489  0.13501786  0.83918368    -0.23700
H1579       H  0.91567238  0.07439847  0.95436636     0.05500
H1580       H  0.94814002  0.06052764  0.97229270     0.08700
H1581       H  0.92723827  0.04030214  0.93725358     0.08700
H1582       H  0.00143427  0.14268696  0.84593186     0.08700
H1583       H  0.96701724  0.15504746  0.83036047     0.08700
H1584       H  0.97819199  0.11925745  0.81686063     0.05500
C1585       C  0.94059198  0.43425726  0.92436293    -0.20300
C1586       C  0.96712644  0.43807891  0.91283422    -0.06900
C1587       C  0.98173540  0.41091307  0.90920461     0.14000
C1588       C  0.96748201  0.38212903  0.90948143    -0.20400
C1589       C  0.93954462  0.37950088  0.91543242    -0.06900
C1590       C  0.92648018  0.40581571  0.92455204     0.14000
C1591       C  0.89707444  0.40411610  0.93286919    -0.23700
H1592       H  0.92977316  0.45431461  0.93091715     0.15200
H1593       H  0.97835085  0.36162310  0.90505003     0.15300
C1594       C  0.01242891  0.41078627  0.90885312    -0.23700
H1595       H  0.88985344  0.42689478  0.93972503     0.05500
H1596       H  0.89554457  0.38814911  0.95521180     0.08700
H1597       H  0.88310796  0.39566338  0.91006820     0.08700
H1598       H  0.02227433  0.43291918  0.91762557     0.08700
H1599       H  0.01728179  0.40480121  0.88265842     0.08700
H1600       H  0.02151757  0.39326925  0.92772661     0.05500
C1601       C  0.97652270  0.53612116  0.40324843     0.30000
C1602       C  0.97621639  0.97204813  0.40522519     0.30000
C1603       C  0.95143686  0.52053315  0.38256566    -0.06200
C1604       C  0.00087172  0.52024010  0.38750769    -0.07000
C1605       C  0.97857996  0.52078077  0.43925303    -0.06900
C1606       C  0.95260153  0.98821644  0.38311047    -0.06200
C1607       C  0.00170871  0.98756268  0.38906339    -0.07000
C1608       C  0.97830769  0.98802529  0.44029175    -0.06900
C1609       C  0.93594245  0.97934635  0.35340417    -0.32300
N1610       N  0.92578222  0.00481406  0.33647541     0.14200
C1611       C  0.93566772  0.53005493  0.35251938    -0.32300
H1612       H  0.93462285  0.55337461  0.34256994     0.16200
C1613       C  0.02425114  0.97886860  0.37287678    -0.31200
N1614       N  0.03953382  0.00414027  0.36435005     0.13000
C1615       C  0.02461962  0.52894506  0.37233194    -0.31200
C1616       C  0.98903329  0.97812511  0.47296974    -0.31500
N1617       N  0.99536658  0.50396709  0.49208742     0.13500
H1618       H  0.99302962  0.95454093  0.48069928     0.16100
C1619       C  0.99145672  0.52943983  0.47158719    -0.31500
H1620       H  0.99859459  0.55240776  0.47884821     0.16100
H1621       H  0.03245929  0.55212048  0.36923770     0.16100
H1622       H  0.93338362  0.95623486  0.34365647     0.16200
H1623       H  0.02904374  0.95572176  0.36717343     0.16100
Zr1624     Zr  0.87595327  0.70562083  0.34363929     2.17500
O1625       O  0.85355154  0.67289245  0.38402742    -0.51400
O1626       O  0.87169120  0.67001043  0.29508995    -0.74600
O1627       O  0.82452138  0.70674607  0.32867436    -0.81300
O1628       O  0.95035737  0.68188648  0.38023277    -0.83100
O1629       O  0.81501261  0.75386864  0.30453174    -0.78700
O1630       O  0.90643894  0.66262801  0.36668698    -0.90400
O1631       O  0.89852774  0.68708060  0.25487966    -0.76300
O1632       O  0.86994223  0.73572549  0.29137786    -0.85800
O1633       O  0.92001238  0.71044468  0.32314168    -0.85500
O1634       O  0.86121501  0.75552173  0.35969017    -0.72300
O1635       O  0.90630044  0.73093652  0.38922666    -0.84400
Zr1636     Zr  0.92803962  0.81584209  0.33125467     2.26400
Zr1637     Zr  0.85630062  0.78568755  0.30666090     2.06300
Zr1638     Zr  0.95032180  0.73615359  0.36746430     2.10000
Zr1639     Zr  0.91382708  0.73912008  0.27093330     1.78800
O1640       O  0.96701859  0.72942220  0.42875215    -0.93200
O1641       O  0.88230695  0.74628847  0.21765964    -0.41000
O1642       O  0.94396071  0.76646155  0.31456893    -0.77600
O1643       O  0.90010469  0.78886797  0.28484946    -0.96300
O1644       O  0.88445003  0.81145467  0.35239661    -0.89600
O1645       O  0.93526908  0.78498700  0.38320431    -0.92500
C1646       C  0.88265006  0.66665736  0.26684495     1.01300
C1647       C  0.93267105  0.65958443  0.37686524     1.14200
C1648       C  0.80756532  0.72695568  0.31411914     1.05000
O1649       O  0.82716793  0.78860848  0.25112960    -0.94600
O1650       O  0.86287235  0.83484589  0.27628506    -0.90400
O1651       O  0.90854594  0.84782282  0.28423961    -0.83500
C1652       C  0.88363293  0.85247272  0.27086940     1.11600
O1653       O  0.86102524  0.76097765  0.44480374    -0.96600
Zr1654     Zr  0.89189608  0.78115230  0.40450123     1.88900
O1655       O  0.91083456  0.84944449  0.37128515    -0.73200
O1656       O  0.82535641  0.81857391  0.33302786    -0.52500
O1657       O  0.85704750  0.81717195  0.41619590    -0.97200
O1658       O  0.91591896  0.76554935  0.46060499    -0.54400
O1659       O  0.91919870  0.82800842  0.42321150    -0.73800
C1660       C  0.92217624  0.85068156  0.40238448     0.98600
O1661       O  0.94970473  0.86591439  0.31847731    -0.62600
O1662       O  0.98956040  0.71323472  0.34579012    -0.57400
O1663       O  0.97539604  0.81819010  0.35893339    -0.94100
O1664       O  0.98943760  0.77263265  0.37579883    -0.92500
O1665       O  0.95767311  0.71702446  0.26184054    -0.92800
O1666       O  0.93295699  0.76014200  0.22018989    -0.91600
C1667       C  0.99037873  0.79557875  0.35502313     1.17400
H1668       H  0.92708398  0.69087439  0.31785471     0.33400
H1669       H  0.89906230  0.79905385  0.26252474     0.44200
H1670       H  0.94892075  0.79344664  0.40083666     0.37700
H1671       H  0.84341055  0.75325755  0.36802731     0.34200
H1672       H  0.86824276  0.72946836  0.21788538     0.26000
H1673       H  0.81928201  0.83392131  0.31479649     0.32000
H1674       H  0.84029186  0.81104142  0.40055113     0.37900
H1675       H  0.95411397  0.69455715  0.26146612     0.32300
H1676       H  0.99635350  0.69716544  0.36281902     0.31200
H1677       H  0.98331592  0.71629885  0.42918816     0.32900
H1678       H  0.93542079  0.77223333  0.45982341     0.31800
H1679       H  0.93413175  0.74254114  0.20471823     0.35800
H1680       H  0.93733588  0.88166539  0.32557559     0.28600
H1681       H  0.84138260  0.65857384  0.36921886     0.32800
H1682       H  0.84923350  0.74527033  0.43161760     0.35700
H1683       H  0.98201656  0.70232579  0.32451213     0.28300
H1684       H  0.96672802  0.86869612  0.33492821     0.41100
H1685       H  0.81304496  0.80378965  0.25453771     0.31200
H1686       H  0.87215132  0.76508231  0.22121445     0.38800
H1687       H  0.91616961  0.74286051  0.45997192     0.30700
H1688       H  0.80857004  0.80572894  0.33522796     0.30700
H1689       H  0.84075101  0.68645042  0.39408205     0.31000
C1690       C  0.87719456  0.53943749  0.21804213     0.30000
C1691       C  0.87880054  0.97727086  0.21771387     0.30000
C1692       C  0.84909172  0.52260493  0.20657901    -0.06200
C1693       C  0.89636243  0.52585532  0.19237909    -0.07000
C1694       C  0.88839581  0.52268873  0.25149822    -0.06900
C1695       C  0.85085288  0.99206439  0.20592752    -0.06200
C1696       C  0.89686135  0.99454280  0.19321662    -0.07000
C1697       C  0.88811972  0.99172566  0.25282637    -0.06900
C1698       C  0.82434388  0.98180592  0.19459316    -0.32300
N1699       N  0.80728259  0.00579411  0.19263013     0.14200
C1700       C  0.82146240  0.53030012  0.19910818    -0.32300
H1701       H  0.81316854  0.55293308  0.20063273     0.16200
C1702       C  0.91548274  0.98585503  0.17173029    -0.31200
N1703       N  0.93052599  0.01086471  0.16319407     0.13000
C1704       C  0.91860125  0.53510671  0.17452208    -0.31200
C1705       C  0.90102723  0.98115786  0.28422234    -0.31500
N1706       N  0.90975379  0.00576383  0.30375220     0.13500
H1707       H  0.90514317  0.95749682  0.29138808     0.16100
C1708       C  0.90215002  0.53141841  0.28304078    -0.31500
H1709       H  0.90699802  0.55473530  0.29114103     0.16100
H1710       H  0.92765998  0.55794719  0.17370804     0.16100
H1711       H  0.81732853  0.95832463  0.18983700     0.16200
H1712       H  0.91902799  0.96254628  0.16494422     0.16100
C1713       C  0.02278293  0.53471184  0.11544689     0.30000
C1714       C  0.01729472  0.97159016  0.11834955     0.30000
C1715       C  0.04229763  0.51733220  0.14241613    -0.06200
C1716       C  0.99420864  0.52208008  0.12486401    -0.07000
C1717       C  0.02560612  0.51863499  0.08128573    -0.06900
C1718       C  0.04138782  0.98491598  0.14326709    -0.06200
C1719       C  0.99212943  0.98988606  0.12735405    -0.07000
C1720       C  0.02144761  0.98661823  0.08311446    -0.06900
C1721       C  0.05735912  0.97421152  0.17293224    -0.32300
N1722       N  0.06902962  0.50004588  0.18860215     0.14200
C1723       C  0.05972462  0.52577059  0.17148983    -0.32300
H1724       H  0.06419353  0.54897773  0.18020675     0.16200
C1725       C  0.96644232  0.98316415  0.13748694    -0.31200
N1726       N  0.95523432  0.00948164  0.14722604     0.13000
C1727       C  0.97139846  0.53285887  0.13897427    -0.31200
C1728       C  0.00949467  0.97876139  0.05025098    -0.31500
N1729       N  0.00966774  0.50403798  0.02765374     0.13500
H1730       H  0.00017053  0.95662569  0.04307603     0.16100
C1731       C  0.01753612  0.52863072  0.04755920    -0.31500
H1732       H  0.01469818  0.55228024  0.03926553     0.16100
H1733       H  0.96859060  0.55608182  0.14665728     0.16100
H1734       H  0.05866766  0.95063876  0.18201189     0.16200
H1735       H  0.95728074  0.96042941  0.13903454     0.16100
Zr1736     Zr  0.12269155  0.70474415  0.17817900     2.17500
O1737       O  0.14231091  0.67589034  0.13440189    -0.51400
O1738       O  0.13147910  0.66329422  0.22321919    -0.74600
O1739       O  0.17337612  0.71581390  0.17869870    -0.81300
O1740       O  0.04891499  0.67512325  0.14836278    -0.83100
O1741       O  0.18277604  0.76378540  0.19977780    -0.78700
O1742       O  0.09384397  0.66354642  0.14814337    -0.90400
O1743       O  0.11602545  0.67753869  0.27283980    -0.76300
O1744       O  0.13627935  0.73276688  0.22966918    -0.85800
O1745       O  0.08500272  0.69991416  0.21155543    -0.85500
O1746       O  0.12846897  0.75774917  0.15960213    -0.72300
O1747       O  0.08331650  0.72726852  0.14347295    -0.84400
Zr1748     Zr  0.06520301  0.80018751  0.21359437     2.26400
Zr1749     Zr  0.14087650  0.78547785  0.21216852     2.06300
Zr1750     Zr  0.04569141  0.72181489  0.17779811     2.10000
Zr1751     Zr  0.09918266  0.72738220  0.26353386     1.78800
O1752       O  0.01145046  0.73084552  0.12766526    -0.93200
O1753       O  0.14092667  0.73270552  0.30491398    -0.41000
O1754       O  0.05926848  0.74808442  0.23114864    -0.77600
O1755       O  0.10470257  0.77943361  0.24801060    -0.96300
O1756       O  0.10191690  0.80811906  0.17917927    -0.89600
O1757       O  0.05149722  0.77417287  0.16062535    -0.92500
C1758       C  0.12635551  0.65802298  0.25486138     1.01300
C1759       C  0.06768282  0.65745789  0.14115052     1.14200
C1760       C  0.19013069  0.73875742  0.18753945     1.05000
O1761       O  0.17811264  0.78944503  0.25999628    -0.94600
O1762       O  0.13691567  0.83129425  0.24507465    -0.90400
O1763       O  0.09116243  0.83979664  0.24616427    -0.83500
C1764       C  0.11682843  0.84642297  0.25404115     1.11600
O1765       O  0.10905034  0.76647327  0.07586595    -0.96600
Zr1766     Zr  0.08860577  0.78075204  0.12725775     1.88900
O1767       O  0.05264685  0.84090420  0.17360664    -0.73200
O1768       O  0.16189066  0.82354538  0.17611114    -0.52500
O1769       O  0.11855085  0.81998770  0.10470548    -0.97200
O1770       O  0.05172332  0.76700790  0.08151602    -0.54400
O1771       O  0.06100347  0.82765797  0.11986237    -0.73800
C1772       C  0.05100253  0.84565488  0.14090278     0.98600
O1773       O  0.04026042  0.82395301  0.25636949    -0.62600
O1774       O  0.01588538  0.68128023  0.19840764    -0.57400
O1775       O  0.01673116  0.78608462  0.20102067    -0.94100
O1776       O  0.00954818  0.73661744  0.21061975    -0.92500
O1777       O  0.06358316  0.69739381  0.28877155    -0.92800
O1778       O  0.09366174  0.75000441  0.31889107    -0.91600
C1779       C  0.00617537  0.76450954  0.21785105     1.17400
H1780       H  0.08046923  0.67870437  0.21639414     0.33400
H1781       H  0.10897692  0.78978488  0.26980954     0.44200
H1782       H  0.03492426  0.78196713  0.14755239     0.37700
H1783       H  0.14336831  0.75943217  0.14535306     0.34200
H1784       H  0.15464012  0.71929108  0.29645531     0.26000
H1785       H  0.14989578  0.84153368  0.17543807     0.32000
H1786       H  0.11660866  0.83837703  0.11869311     0.37900
H1787       H  0.05479214  0.68434082  0.26969767     0.32300
H1788       H  0.00443392  0.67322563  0.17752991     0.31200
H1789       H  0.00124964  0.71098218  0.12398697     0.32900
H1790       H  0.05692182  0.74705837  0.07278163     0.31800
H1791       H  0.09697944  0.73312728  0.33623242     0.35800
H1792       H  0.05127723  0.82029815  0.27918215     0.28600
H1793       H  0.15771279  0.66439374  0.14717060     0.32800
H1794       H  0.11600073  0.74558564  0.08130618     0.35700
H1795       H  0.02831381  0.66439877  0.20672838     0.28300
H1796       H  0.04134120  0.84641086  0.25217780     0.41100
H1797       H  0.18845527  0.80864309  0.25529732     0.31200
H1798       H  0.14805569  0.75382449  0.30106547     0.38800
H1799       H  0.05385928  0.78189962  0.06239348     0.30700
H1800       H  0.17925926  0.83017464  0.19027472     0.30700
H1801       H  0.15118306  0.69142572  0.12015873     0.31000
C1802       C  0.12097864  0.96709997  0.30723832     0.30000
C1803       C  0.12412631  0.53049666  0.30217618     0.30000
C1804       C  0.11034125  0.98221808  0.27217833    -0.06200
C1805       C  0.10367159  0.98429757  0.33166434    -0.07000
C1806       C  0.15016417  0.98080026  0.31720149    -0.06900
C1807       C  0.11119085  0.51481856  0.26912514    -0.06200
C1808       C  0.10399505  0.51717171  0.32855414    -0.07000
C1809       C  0.15130873  0.51345327  0.31329880    -0.06900
C1810       C  0.09647705  0.52450099  0.23848639    -0.32300
N1811       N  0.08637470  0.99804450  0.22282277     0.14200
C1812       C  0.09337442  0.97283946  0.24269542    -0.32300
H1813       H  0.08590858  0.94965548  0.23702037     0.16200
C1814       C  0.07925957  0.52720778  0.33958574    -0.31200
N1815       N  0.06547269  0.00337676  0.35032792     0.13000
C1816       C  0.07803535  0.97738820  0.34256804    -0.31200
C1817       C  0.17976971  0.52009158  0.31657541    -0.31500
N1818       N  0.19561788  0.99138653  0.32408730     0.13500
H1819       H  0.18943296  0.54241549  0.31314969     0.16100
C1820       C  0.17626781  0.96850644  0.32378699    -0.31500
H1821       H  0.18092204  0.94434146  0.32507778     0.16100
H1822       H  0.06808645  0.95500744  0.34177950     0.16100
H1823       H  0.09285491  0.54808627  0.23054503     0.16200
H1824       H  0.07254802  0.55065043  0.33867344     0.16100
C1825       C  0.52486392  0.77666638  0.08667892     0.30000
C1826       C  0.51863010  0.71421248  0.08439338     0.30000
C1827       C  0.54900384  0.75814825  0.10446151    -0.06200
C1828       C  0.49981975  0.76305849  0.10453846    -0.07000
C1829       C  0.51872071  0.76309371  0.05028093    -0.06900
C1830       C  0.54551633  0.72666144  0.10447042    -0.06200
C1831       C  0.49642143  0.73075871  0.10319224    -0.07000
C1832       C  0.51586020  0.73135057  0.04934237    -0.06900
C1833       C  0.56084766  0.71582865  0.13465692    -0.32300
N1834       N  0.57460313  0.73976571  0.15144283     0.14200
C1835       C  0.56740564  0.76550052  0.13322482    -0.32300
H1836       H  0.57257495  0.78840233  0.14231142     0.16200
C1837       C  0.47159307  0.72372058  0.11646309    -0.31200
N1838       N  0.46021360  0.74997101  0.12633023     0.13000
C1839       C  0.47699258  0.77408638  0.11850863    -0.31200
C1840       C  0.50281408  0.72384818  0.01695852    -0.31500
N1841       N  0.49878894  0.74989543  0.99760064     0.13500
H1842       H  0.49592413  0.70105083  0.00874366     0.16100
C1843       C  0.50675053  0.77411047  0.01833100    -0.31500
H1844       H  0.50318973  0.79792569  0.01130060     0.16100
H1845       H  0.47231707  0.79795020  0.12118714     0.16100
H1846       H  0.55945443  0.69278117  0.14525192     0.16200
H1847       H  0.46147400  0.70145639  0.11703168     0.16100
Zr1848     Zr  0.62701343  0.94817794  0.15682011     2.17500
O1849       O  0.65283647  0.92519339  0.11449792    -0.51400
O1850       O  0.63495832  0.90869014  0.20258799    -0.74600
O1851       O  0.67653403  0.96083725  0.17169802    -0.81300
O1852       O  0.56001299  0.91222903  0.11024004    -0.83100
O1853       O  0.67694061  0.50689229  0.20187771    -0.78700
O1854       O  0.60413002  0.90031614  0.13176161    -0.90400
O1855       O  0.60173247  0.91346809  0.23790726    -0.76300
O1856       O  0.62476177  0.97029189  0.21231038    -0.85800
O1857       O  0.58127360  0.94038836  0.17037860    -0.85500
O1858       O  0.63304954  0.50445457  0.14881008    -0.72300
O1859       O  0.59847772  0.97377846  0.10997496    -0.84400
Zr1860     Zr  0.55395091  0.53712170  0.17284601     2.26400
Zr1861     Zr  0.63050237  0.52543622  0.20491957     2.06300
Zr1862     Zr  0.55263674  0.96385039  0.12365782     2.10000
Zr1863     Zr  0.57859465  0.96097225  0.22520011     1.78800
O1864       O  0.54453535  0.95420209  0.06161604    -0.93200
O1865       O  0.60082409  0.96787321  0.28432203    -0.41000
O1866       O  0.54414048  0.48388930  0.17872110    -0.77600
O1867       O  0.58467685  0.51551893  0.21923263    -0.96300
O1868       O  0.59973130  0.55036471  0.16107647    -0.89600
O1869       O  0.55813710  0.51879757  0.11682073    -0.92500
C1870       C  0.62170335  0.89924623  0.22773192     1.01300
C1871       C  0.57929540  0.89329318  0.11770124     1.14200
C1872       C  0.69028789  0.98251989  0.18888108     1.05000
O1873       O  0.64709355  0.51805138  0.26616114    -0.98200
O1874       O  0.61526584  0.57157529  0.23101478    -0.90400
O1875       O  0.56965486  0.57773749  0.21252531    -0.83500
C1876       C  0.59255969  0.58618483  0.23007950     1.11600
O1877       O  0.63872296  0.52613737  0.06722595    -0.96600
Zr1878     Zr  0.60298152  0.53123521  0.10524887     1.88900
O1879       O  0.54906593  0.58194261  0.13824824    -0.73200
O1880       O  0.66435689  0.56668830  0.19821092    -0.52500
O1881       O  0.63605049  0.57433170  0.10915398    -0.97200
O1882       O  0.58574700  0.52257172  0.04451674    -0.54400
O1883       O  0.57255121  0.57647224  0.09209535    -0.73800
C1884       C  0.55517010  0.59049932  0.10870949     0.98600
O1885       O  0.51927648  0.54863955  0.21043207    -0.62600
O1886       O  0.51150274  0.93681883  0.13929660    -0.57400
O1887       O  0.50840373  0.52795465  0.13833222    -0.94100
O1888       O  0.51110301  0.98929751  0.10237935    -0.92500
O1889       O  0.54212396  0.92171600  0.22731628    -0.92800
O1890       O  0.54529798  0.97214249  0.26482721    -0.91600
C1891       C  0.49716514  0.51108555  0.11293791     1.17400
H1892       H  0.57644121  0.91910611  0.17372740     0.33400
H1893       H  0.58238734  0.52480969  0.24100255     0.44200
H1894       H  0.54571482  0.52803664  0.09857035     0.37700
H1895       H  0.65119813  0.50813954  0.14180091     0.34200
H1896       H  0.59302600  0.95107798  0.29797186     0.26000
H1897       H  0.65336797  0.58452818  0.18921764     0.32000
H1898       H  0.63090153  0.58670010  0.08779827     0.37900
H1899       H  0.54973524  0.90608574  0.24441855     0.32300
H1900       H  0.51049016  0.91708643  0.12697031     0.31200
H1901       H  0.52691252  0.94211506  0.05834365     0.32900
H1902       H  0.56591216  0.52756960  0.04230272     0.31800
H1903       H  0.55000037  0.49683333  0.27383435     0.35800
H1904       H  0.50315730  0.55578281  0.19467538     0.28600
H1905       H  0.66782335  0.91386664  0.12836179     0.32800
H1906       H  0.64531204  0.50497318  0.07166240     0.35700
H1907       H  0.51571552  0.93128518  0.16415857     0.28300
H1908       H  0.51332813  0.52834169  0.21917240     0.41100
H1909       H  0.66224979  0.53356207  0.27097903     0.31200
H1910       H  0.62028341  0.96223524  0.28360761     0.38800
H1911       H  0.58582188  0.50001779  0.04195170     0.30700
H1912       H  0.67192425  0.57224655  0.22218201     0.30700
H1913       H  0.66223550  0.94270433  0.10380601     0.31000
C1914       C  0.61249697  0.70880773  0.27498036     0.30000
C1915       C  0.62142705  0.77119296  0.27035890     0.30000
C1916       C  0.60526722  0.72376508  0.23873729    -0.06200
C1917       C  0.59665772  0.72841111  0.29816862    -0.07000
C1918       C  0.64288957  0.72003213  0.28394467    -0.06900
C1919       C  0.60874603  0.75529079  0.23692334    -0.06200
C1920       C  0.60030163  0.76032874  0.29571310    -0.07000
C1921       C  0.64722291  0.75183463  0.28258732    -0.06900
C1922       C  0.59776953  0.76460692  0.20412532    -0.32300
N1923       N  0.58880382  0.73940851  0.18547469     0.14200
C1924       C  0.59366546  0.71426844  0.20612312    -0.32300
H1925       H  0.58838658  0.69100480  0.19821366     0.16200
C1926       C  0.57773064  0.77237064  0.30985513    -0.31200
N1927       N  0.56237081  0.74890890  0.32237250     0.13000
C1928       C  0.57384074  0.72216238  0.31502003    -0.31200
C1929       C  0.67561202  0.75735625  0.28769623    -0.31500
N1930       N  0.68863026  0.73003491  0.29063063     0.13500
H1931       H  0.68602047  0.77961063  0.28749591     0.16100
C1932       C  0.66892002  0.70730110  0.28714058    -0.31500
H1933       H  0.67346333  0.68347158  0.28447383     0.16100
H1934       H  0.56533642  0.69948229  0.31948601     0.16100
H1935       H  0.59590645  0.78813197  0.19507796     0.16200
H1936       H  0.57173073  0.79606560  0.30889441     0.16100
C1937       C  0.47619281  0.78421848  0.37614996     0.30000
C1938       C  0.47434241  0.72098526  0.37616768     0.30000
C1939       C  0.45334559  0.76891170  0.35112004    -0.06200
C1940       C  0.50250964  0.76881984  0.36463324    -0.07000
C1941       C  0.47374437  0.76808143  0.41138250    -0.06900
C1942       C  0.45241397  0.73719146  0.35106231    -0.06200
C1943       C  0.50093093  0.73633703  0.36452527    -0.07000
C1944       C  0.47220927  0.73601018  0.41121055    -0.06900
C1945       C  0.43850489  0.72857195  0.31942629    -0.32300
N1946       N  0.42997194  0.75403417  0.30118846     0.14200
C1947       C  0.43961237  0.77885046  0.31975394    -0.32300
H1948       H  0.43850209  0.80235183  0.31035291     0.16200
C1949       C  0.52190689  0.72654991  0.34699505    -0.31200
N1950       N  0.53781797  0.75099974  0.33865638     0.13000
C1951       C  0.52613285  0.77695158  0.34873229    -0.31200
C1952       C  0.48044576  0.72609733  0.44486527    -0.31500
N1953       N  0.48641479  0.75080863  0.46556526     0.13500
H1954       H  0.48455301  0.70256319  0.45267288     0.16100
C1955       C  0.48338225  0.77642973  0.44510960    -0.31500
H1956       H  0.49003352  0.79933236  0.45322914     0.16100
H1957       H  0.53398637  0.79970691  0.34362486     0.16100
H1958       H  0.43654837  0.70549265  0.30956548     0.16200
H1959       H  0.52426711  0.70341087  0.33882995     0.16100
Zr1960     Zr  0.37853920  0.95128571  0.31041181     2.17500
O1961       O  0.36389415  0.91867826  0.35677173    -0.51400
O1962       O  0.36688941  0.91181171  0.26630200    -0.74600
O1963       O  0.32860664  0.95767169  0.31723855    -0.81300
O1964       O  0.45319168  0.92483228  0.31998778    -0.83100
O1965       O  0.31564510  0.50884008  0.30379323    -0.78700
O1966       O  0.41124837  0.91164198  0.33577282    -0.90400
O1967       O  0.36427961  0.93294080  0.21242542    -0.76300
O1968       O  0.35631839  0.98363746  0.26501706    -0.85800
O1969       O  0.40833583  0.94987372  0.26595651    -0.85500
O1970       O  0.37505170  0.50174524  0.32942631    -0.72300
O1971       O  0.42326830  0.97081292  0.33611315    -0.84400
Zr1972     Zr  0.42524313  0.55390064  0.26574408     2.26400
Zr1973     Zr  0.35430471  0.53560319  0.28399045     2.06300
Zr1974     Zr  0.45093577  0.97321425  0.28931390     2.10000
Zr1975     Zr  0.38592443  0.98261671  0.22184100     1.78800
O1976       O  0.49771122  0.98618418  0.31558762    -0.93200
O1977       O  0.33955838  0.98688184  0.19077475    -0.41000
O1978       O  0.41464047  0.50350461  0.25873110    -0.77600
O1979       O  0.38121106  0.53549785  0.23660506    -0.96300
O1980       O  0.39763654  0.55555925  0.31127024    -0.89600
O1981       O  0.44962048  0.52291452  0.30922316    -0.92500
C1982       C  0.36356205  0.90984002  0.23299067     1.01300
C1983       C  0.43727062  0.90659075  0.33487844     1.14200
C1984       C  0.31126360  0.97983768  0.31197196     1.05000
O1985       O  0.31163595  0.54384815  0.24562532    -0.94600
O1986       O  0.35511739  0.58509103  0.25211053    -0.90400
O1987       O  0.39798971  0.59268729  0.23558967    -0.83500
C1988       C  0.37281771  0.59995834  0.23552456     1.11600
O1989       O  0.41422354  0.49443357  0.40829847    -0.96600
Zr1990     Zr  0.41990634  0.52111597  0.35389930     1.88900
O1991       O  0.43961372  0.59327703  0.30863183    -0.73200
O1992       O  0.33926581  0.56878175  0.32740370    -0.52500
O1993       O  0.39739258  0.54711041  0.39723546    -0.97200
O1994       O  0.46600036  0.50782921  0.38080907    -0.54400
O1995       O  0.44063568  0.57220987  0.36260978    -0.73800
C1996       C  0.44435954  0.59470627  0.34181840     0.98600
O1997       O  0.46601419  0.57978216  0.24719433    -0.62600
O1998       O  0.47779966  0.94419341  0.25292601    -0.57400
O1999       O  0.45174060  0.53804564  0.22183478    -0.94100
O2000       O  0.45331888  0.98706034  0.22871098    -0.92500
O2001       O  0.41397958  0.95059673  0.19066633    -0.92800
O2002       O  0.39735429  0.01150610  0.17101128    -0.91600
C2003       C  0.45026845  0.51233552  0.20675254     1.17400
H2004       H  0.41238057  0.92980276  0.25810460     0.33400
H2005       H  0.37355555  0.54661910  0.21610342     0.44200
H2006       H  0.46786844  0.53138104  0.31661436     0.37700
H2007       H  0.36340357  0.50089671  0.34787108     0.34200
H2008       H  0.33217506  0.00560792  0.19982797     0.26000
H2009       H  0.35531503  0.58270166  0.33433515     0.32000
H2010       H  0.37735188  0.54456418  0.38942877     0.37900
H2011       H  0.40301654  0.94717805  0.16780923     0.32300
H2012       H  0.49432792  0.93768385  0.26839972     0.31200
H2013       H  0.50528446  0.96644430  0.32485930     0.32900
H2014       H  0.46534223  0.48518039  0.38338471     0.31800
H2015       H  0.37256708  0.51515294  0.15231850     0.35800
H2016       H  0.46213017  0.60194305  0.24750474     0.28600
H2017       H  0.34842615  0.90572769  0.34557037     0.32800
H2018       H  0.41231689  0.47246918  0.40215662     0.35700
H2019       H  0.46678328  0.92502874  0.24776790     0.28300
H2020       H  0.48085625  0.57669641  0.26670145     0.41100
H2021       H  0.30135116  0.55863690  0.25783712     0.31200
H2022       H  0.34232977  0.99234763  0.16657137     0.38800
H2023       H  0.46723571  0.51547090  0.40480354     0.30700
H2024       H  0.32545662  0.58213752  0.31421011     0.30700
H2025       H  0.35532806  0.93256043  0.37202120     0.31000
C2026       C  0.37620333  0.72311085  0.18700851     0.30000
C2027       C  0.37792076  0.78583703  0.18493464     0.30000
C2028       C  0.38969531  0.73890782  0.21964048    -0.06200
C2029       C  0.39413419  0.73725545  0.15958008    -0.07000
C2030       C  0.34888290  0.73844935  0.17655608    -0.06900
C2031       C  0.39049325  0.77033348  0.21887241    -0.06200
C2032       C  0.39560961  0.77026556  0.15870249    -0.07000
C2033       C  0.34933720  0.76980162  0.17600521    -0.06900
C2034       C  0.40638639  0.77977589  0.24897504    -0.32300
N2035       N  0.41471026  0.75443214  0.26787252     0.14200
C2036       C  0.40498846  0.72928595  0.24985552    -0.32300
H2037       H  0.40886388  0.70573004  0.25775824     0.16200
C2038       C  0.42140683  0.77766993  0.14767827    -0.31200
N2039       N  0.43407027  0.75171389  0.13936926     0.13000
C2040       C  0.41824400  0.72726523  0.14815299    -0.31200
C2041       C  0.32184761  0.77840067  0.17138413    -0.31500
N2042       N  0.30527484  0.75266028  0.16941105     0.13500
H2043       H  0.31451126  0.80157458  0.17164933     0.16100
C2044       C  0.32172746  0.72816960  0.17149780    -0.31500
H2045       H  0.31439752  0.70454847  0.17288107     0.16100
H2046       H  0.42495471  0.70382179  0.14939663     0.16100
H2047       H  0.41176752  0.80323513  0.25612415     0.16200
H2048       H  0.43115557  0.80024961  0.14835763     0.16100
C2049       C  0.37480098  0.87532097  0.18627598    -0.20300
C2050       C  0.36277185  0.87893806  0.21729891    -0.06900
C2051       C  0.35354808  0.85259995  0.23435104     0.14000
C2052       C  0.35818312  0.82388547  0.22141292    -0.20400
C2053       C  0.37267371  0.81967391  0.19230963    -0.06900
C2054       C  0.37938024  0.84614559  0.17316652     0.14000
C2055       C  0.38978382  0.84507044  0.13840570    -0.23700
H2056       H  0.38122426  0.89545761  0.17226359     0.15200
H2057       H  0.35100858  0.80394105  0.23520325     0.15300
C2058       C  0.33895314  0.85413702  0.26638750    -0.23700
H2059       H  0.37772483  0.86087842  0.11995740     0.05500
H2060       H  0.38685927  0.82217950  0.12671188     0.08700
H2061       H  0.41190030  0.85253591  0.14083075     0.08700
H2062       H  0.32129172  0.86983360  0.26156930     0.08700
H2063       H  0.35354328  0.86211642  0.28881591     0.08700
H2064       H  0.33062499  0.83129412  0.27381592     0.05500
C2065       C  0.37767804  0.66638251  0.17426929    -0.20300
C2066       C  0.37021308  0.68958119  0.19531115    -0.06900
C2067       C  0.35551382  0.68108702  0.22430184     0.14000
C2068       C  0.35346028  0.65040950  0.23419011    -0.20400
C2069       C  0.36481132  0.62797223  0.21609616    -0.06900
C2070       C  0.37445512  0.63550675  0.18398597     0.14000
C2071       C  0.38102340  0.61151117  0.15930626    -0.23700
H2072       H  0.38590053  0.67213433  0.15027130     0.15200
H2073       H  0.34498300  0.64429294  0.25805447     0.15300
C2074       C  0.34243134  0.70287357  0.24721942    -0.23700
H2075       H  0.36748366  0.61425277  0.13432804     0.05500
H2076       H  0.37755005  0.58787088  0.16921930     0.08700
H2077       H  0.40277231  0.61489617  0.15435265     0.08700
H2078       H  0.32010870  0.69667683  0.24662123     0.08700
H2079       H  0.34357305  0.72738294  0.24006890     0.08700
H2080       H  0.35244828  0.70049897  0.27438752     0.05500
C2081       C  0.48721227  0.84028568  0.36098112    -0.20300
C2082       C  0.46990246  0.81887948  0.37546042    -0.06900
C2083       C  0.44355383  0.82923673  0.38274381     0.14000
C2084       C  0.43401483  0.85799251  0.36999825    -0.20400
C2085       C  0.45009405  0.87785462  0.35142189    -0.06900
C2086       C  0.47794240  0.86933713  0.34880724     0.14000
C2087       C  0.49832631  0.88981264  0.33232480    -0.23700
H2088       H  0.50781118  0.83406149  0.35764233     0.15200
H2089       H  0.41341658  0.86468849  0.37401535     0.15300
C2090       C  0.42455053  0.81007944  0.40309031    -0.23700
H2091       H  0.51904679  0.87954850  0.33364111     0.05500
H2092       H  0.50120516  0.91196371  0.34609030     0.08700
H2093       H  0.49089936  0.89350282  0.30446171     0.08700
H2094       H  0.43467004  0.80607951  0.42987075     0.08700
H2095       H  0.41868598  0.78786459  0.39055138     0.08700
H2096       H  0.40496013  0.82184603  0.40542382     0.05500
C2097       C  0.48060658  0.63293896  0.36645010    -0.20300
C2098       C  0.45261274  0.62498119  0.35687073    -0.06900
C2099       C  0.43233414  0.64623686  0.36188394     0.14000
C2100       C  0.44056935  0.67578675  0.37313237    -0.20400
C2101       C  0.46860192  0.68585740  0.37637911    -0.06900
C2102       C  0.48878493  0.66284515  0.37768323     0.14000
C2103       C  0.51801001  0.66763334  0.39463880    -0.23700
H2104       H  0.49610007  0.61570656  0.36554612     0.15200
H2105       H  0.42468903  0.69203572  0.37634886     0.15300
C2106       C  0.40192759  0.63814148  0.35405584    -0.23700
H2107       H  0.52197484  0.65104821  0.41663143     0.05500
H2108       H  0.52179054  0.69084280  0.40563325     0.08700
H2109       H  0.53290167  0.66326150  0.37597632     0.08700
H2110       H  0.39660539  0.61819661  0.37039807     0.08700
H2111       H  0.39694435  0.63221431  0.32625978     0.08700
H2112       H  0.38878708  0.65751099  0.35931523     0.05500
C2113       C  0.45511590  0.53798390  0.11340045    -0.20300
C2114       C  0.46691748  0.51134450  0.10355943    -0.06900
C2115       C  0.45577966  0.48426274  0.11674527     0.14000
C2116       C  0.45276797  0.48405769  0.15209084    -0.20400
C2117       C  0.45159574  0.51231588  0.16898045    -0.06900
C2118       C  0.44955008  0.53969185  0.14791707     0.14000
C2119       C  0.44255670  0.57036628  0.16090828    -0.23700
H2120       H  0.45611316  0.55850199  0.09742253     0.15200
H2121       H  0.45186258  0.46235782  0.16593810     0.15300
C2122       C  0.45156386  0.45569497  0.09549633    -0.23700
H2123       H  0.45979600  0.57949332  0.17944232     0.05500
H2124       H  0.42342442  0.56801857  0.17354476     0.08700
H2125       H  0.43902940  0.58737176  0.13930812     0.08700
H2126       H  0.44493757  0.43588784  0.11120335     0.08700
H2127       H  0.45641026  0.96141988  0.07292626     0.08700
H2128       H  0.43518077  0.45961697  0.07347897     0.05500
C2129       C  0.64107789  0.84737282  0.22591627    -0.20300
C2130       C  0.62800726  0.86869411  0.24438276    -0.06900
C2131       C  0.61868931  0.85897461  0.27625915     0.14000
C2132       C  0.61919318  0.82766076  0.28571639    -0.20400
C2133       C  0.62801189  0.80548233  0.26408852    -0.06900
C2134       C  0.64182312  0.81622473  0.23551793     0.14000
C2135       C  0.65679847  0.79611504  0.21306966    -0.23700
H2136       H  0.64963620  0.85465091  0.20250391     0.15200
H2137       H  0.61233972  0.82062827  0.31008166     0.15300
C2138       C  0.60820801  0.88109340  0.30077527    -0.23700
H2139       H  0.64677041  0.79736056  0.18582028     0.05500
H2140       H  0.67848466  0.80475441  0.21359335     0.08700
H2141       H  0.65747623  0.77174509  0.22114513     0.08700
H2142       H  0.58781315  0.88986866  0.28974376     0.08700
H2143       H  0.62337671  0.90042121  0.30610389     0.08700
H2144       H  0.60524725  0.86989644  0.32603292     0.05500
C2145       C  0.61555288  0.62116439  0.27572891    -0.20300
C2146       C  0.59322972  0.61520029  0.24979862    -0.06900
C2147       C  0.57282419  0.63789748  0.24271158     0.14000
C2148       C  0.57783336  0.66675666  0.25758360    -0.20400
C2149       C  0.60380159  0.67474483  0.27549344    -0.06900
C2150       C  0.62027367  0.65050620  0.28996113     0.14000
C2151       C  0.63947120  0.65351664  0.32322680    -0.23700
H2152       H  0.62939548  0.60293487  0.28497842     0.15200
H2153       H  0.56288374  0.68454236  0.25099561     0.15300
C2154       C  0.54685004  0.63349209  0.21755889    -0.23700
H2155       H  0.66061070  0.64648969  0.31960921     0.05500
H2156       H  0.63191939  0.63791096  0.34315039     0.08700
H2157       H  0.63997843  0.67702272  0.33372483     0.08700
H2158       H  0.53398075  0.61420286  0.22645152     0.08700
H2159       H  0.55238942  0.62909084  0.19124707     0.08700
H2160       H  0.53388882  0.65416928  0.21532105     0.05500
C2161       C  0.53153531  0.82528856  0.11979500    -0.20300
C2162       C  0.53512795  0.81020977  0.08902603    -0.06900
C2163       C  0.55756528  0.82103670  0.07060784     0.14000
C2164       C  0.57334025  0.84722346  0.08190247    -0.20400
C2165       C  0.56952984  0.86142441  0.11255576    -0.06900
C2166       C  0.54922808  0.84944720  0.13252878     0.14000
C2167       C  0.54690437  0.86136535  0.16821545    -0.23700
H2168       H  0.51706736  0.81593831  0.13637854     0.15200
H2169       H  0.58872603  0.85687980  0.06657694     0.15300
C2170       C  0.56686201  0.80467728  0.04025472    -0.23700
H2171       H  0.53158257  0.84780643  0.18155422     0.05500
H2172       H  0.54013767  0.88533324  0.16638923     0.08700
H2173       H  0.56726619  0.86009611  0.18449314     0.08700
H2174       H  0.57114879  0.78028426  0.04687311     0.08700
H2175       H  0.55132271  0.80677923  0.01716547     0.08700
H2176       H  0.58637811  0.81491398  0.03255111     0.05500
C2177       C  0.50762918  0.65901047  0.10001735    -0.20300
C2178       C  0.52216116  0.67958066  0.08068616    -0.06900
C2179       C  0.54455117  0.66798879  0.06415784     0.14000
C2180       C  0.55354965  0.63794870  0.07163109    -0.20400
C2181       C  0.54108394  0.61892851  0.09475490    -0.06900
C2182       C  0.51648446  0.62903451  0.10717088     0.14000
C2183       C  0.49941219  0.60905117  0.12902509    -0.23700
H2184       H  0.49067576  0.66680297  0.11238373     0.15200
H2185       H  0.57158745  0.62996976  0.06104038     0.15300
C2186       C  0.56065502  0.68714419  0.04015103    -0.23700
H2187       H  0.47902927  0.61910373  0.13117759     0.05500
H2188       H  0.50997048  0.60646632  0.15583291     0.08700
H2189       H  0.49560856  0.58633479  0.11690534     0.08700
H2190       H  0.56943229  0.70845826  0.05264318     0.08700
H2191       H  0.54734512  0.69269621  0.01579757     0.08700
H2192       H  0.57837671  0.67461051  0.03235817     0.05500
C2193       C  0.24320461  0.97968444  0.35124807    -0.20300
C2194       C  0.22461126  0.98630897  0.32144086    -0.06900
C2195       C  0.23211193  0.48199214  0.28676808     0.14000
C2196       C  0.26021711  0.47600653  0.28558886    -0.20400
C2197       C  0.28139331  0.97520249  0.31616711    -0.06900
C2198       C  0.27154047  0.97436761  0.34897146     0.14000
C2199       C  0.29109700  0.96882850  0.38146313    -0.23700
H2200       H  0.23563920  0.97932869  0.37633578     0.15200
H2201       H  0.26754584  0.47254791  0.26072769     0.15300
C2202       C  0.21253694  0.48211534  0.25365591    -0.23700
H2203       H  0.28025142  0.96889386  0.40499047     0.05500
H2204       H  0.30759931  0.98702489  0.38410462     0.08700
H2205       H  0.30071335  0.94615416  0.38012186     0.08700
H2206       H  0.20322042  0.50500590  0.24945372     0.08700
H2207       H  0.19594988  0.46438499  0.25520261     0.08700
H2208       H  0.22324228  0.47715128  0.23081061     0.05500
C2209       C  0.23860433  0.75415839  0.20831903    -0.20300
C2210       C  0.22019707  0.73823600  0.18351961    -0.06900
C2211       C  0.23042433  0.72747485  0.15354804     0.14000
C2212       C  0.25841415  0.73321274  0.14908891    -0.20400
C2213       C  0.27627605  0.75017881  0.17327077    -0.06900
C2214       C  0.26629825  0.76036301  0.20355190     0.14000
C2215       C  0.28492587  0.77706254  0.23140767    -0.23700
H2216       H  0.23103545  0.76250702  0.23142795     0.15200
H2217       H  0.26649772  0.72463903  0.12645423     0.15300
C2218       C  0.21184321  0.71101820  0.12564834    -0.23700
H2219       H  0.27413846  0.78162863  0.25428551     0.05500
H2220       H  0.29184638  0.79956459  0.22130202     0.08700
H2221       H  0.30319702  0.76307474  0.24037295     0.08700
H2222       H  0.19440447  0.72584143  0.11553809     0.08700
H2223       H  0.20374298  0.68931544  0.13641842     0.08700
H2224       H  0.22304329  0.70514957  0.10352377     0.05500
C2225       C  0.13878562  0.92652917  0.27365029    -0.20300
C2226       C  0.12359853  0.93289870  0.30144932    -0.06900
C2227       C  0.11235098  0.90790988  0.31924741     0.14000
C2228       C  0.11108424  0.87893351  0.30383482    -0.20400
C2229       C  0.12328425  0.87426776  0.27343163    -0.06900
C2230       C  0.13856700  0.89787083  0.25925682     0.14000
C2231       C  0.15251355  0.89394808  0.22702101    -0.23700
H2232       H  0.14938451  0.94505178  0.26117045     0.15200
H2233       H  0.10067664  0.85984774  0.31559603     0.15300
C2234       C  0.10406072  0.90980919  0.35508108    -0.23700
H2235       H  0.16266597  0.91559950  0.21894328     0.05500
H2236       H  0.13693156  0.88674027  0.20518927     0.08700
H2237       H  0.16874351  0.87650595  0.23190960     0.08700
H2238       H  0.08147707  0.90522662  0.35438577     0.08700
H2239       H  0.11019410  0.93206739  0.36728539     0.08700
H2240       H  0.11503453  0.89206960  0.37201638     0.05500
C2241       C  0.12020281  0.58712002  0.31404271    -0.20300
C2242       C  0.12965799  0.56445388  0.29394026    -0.06900
C2243       C  0.14332712  0.57404627  0.26460103     0.14000
C2244       C  0.14272478  0.60476495  0.25358320    -0.20400
C2245       C  0.13052341  0.62698796  0.27153335    -0.06900
C2246       C  0.12085248  0.61823526  0.30385490     0.14000
C2247       C  0.11082749  0.64085550  0.32820632    -0.23700
H2248       H  0.11209066  0.58052341  0.33784821     0.15200
H2249       H  0.15142688  0.61120240  0.22999714     0.15300
C2250       C  0.15787112  0.55311599  0.24240287    -0.23700
H2251       H  0.10616669  0.62974707  0.35288461     0.05500
H2252       H  0.09140536  0.65120311  0.31612109     0.08700
H2253       H  0.12704759  0.65886588  0.33509409     0.08700
H2254       H  0.14776420  0.55422804  0.21517500     0.08700
H2255       H  0.15809202  0.52877791  0.25045115     0.08700
H2256       H  0.17976779  0.56105199  0.24283337     0.05500
C2257       C  0.03343578  0.92186260  0.09506672    -0.20300
C2258       C  0.01845396  0.93617519  0.11931632    -0.06900
C2259       C  0.01179448  0.91788353  0.14799863     0.14000
C2260       C  0.01919568  0.88703285  0.15055463    -0.20400
C2261       C  0.03659562  0.87432400  0.12851593    -0.06900
C2262       C  0.04262977  0.89160111  0.09930584     0.14000
C2263       C  0.06021942  0.87930807  0.07363170    -0.23700
H2264       H  0.04087407  0.93504652  0.07419695     0.15200
H2265       H  0.01364592  0.87363752  0.17262331     0.15300
C2266       C  0.00001137  0.92996570  0.17901005    -0.23700
H2267       H  0.06281460  0.89601794  0.05224491     0.05500
H2268       H  0.05030620  0.85814857  0.06177275     0.08700
H2269       H  0.08112374  0.87421164  0.08687085     0.08700
H2270       H  0.97831075  0.92157555  0.17822445     0.08700
H2271       H  0.00146172  0.95511293  0.18121258     0.08700
H2272       H  0.01184662  0.92115970  0.20331085     0.05500
C2273       C  0.02807102  0.62332021  0.11746301    -0.20300
C2274       C  0.05708193  0.62762411  0.12572886    -0.06900
C2275       C  0.07404745  0.60260995  0.12153094     0.14000
C2276       C  0.06148024  0.57386078  0.11383060    -0.20400
C2277       C  0.03261848  0.56844765  0.11337590    -0.06900
C2278       C  0.01573930  0.59429434  0.11019923     0.14000
C2279       C  0.98572002  0.59306329  0.09550950    -0.23700
H2280       H  0.01460045  0.64274751  0.11679787     0.15200
H2281       H  0.07466972  0.55464912  0.11119179     0.15300
C2282       C  0.10520182  0.60522215  0.12635440    -0.23700
H2283       H  0.98252604  0.60901018  0.07280804     0.05500
H2284       H  0.97272490  0.60059345  0.11515089     0.08700
H2285       H  0.97883074  0.57010501  0.08572129     0.08700
H2286       H  0.11282701  0.61123893  0.15356895     0.08700
H2287       H  0.11221701  0.62290295  0.10819257     0.08700
H2288       H  0.11479514  0.58327959  0.12098439     0.05500
C2289       C  0.73454993  0.49626165  0.21918924    -0.20300
C2290       C  0.72091641  0.98495889  0.18977351    -0.06900
C2291       C  0.73440506  0.98190643  0.15968238     0.14000
C2292       C  0.76266270  0.99016236  0.16089758    -0.20400
C2293       C  0.77774263  0.00175981  0.19112049    -0.06900
C2294       C  0.76308264  0.50279311  0.22055836     0.14000
C2295       C  0.77925642  0.51190301  0.25444892    -0.23700
H2296       H  0.72445154  0.49915827  0.24223001     0.15200
H2297       H  0.77323022  0.98744837  0.13821872     0.15300
C2298       C  0.71915636  0.97081173  0.12596556    -0.23700
H2299       H  0.76625747  0.51088880  0.27602793     0.05500
H2300       H  0.78723055  0.53577961  0.25216383     0.08700
H2301       H  0.79678102  0.49625165  0.26115271     0.08700
H2302       H  0.70144166  0.98580025  0.11757764     0.08700
H2303       H  0.71165137  0.94682234  0.12935325     0.08700
H2304       H  0.73268706  0.97108715  0.10493164     0.05500
C2305       C  0.76358643  0.73153460  0.27506085    -0.20300
C2306       C  0.77699086  0.72060219  0.30699291    -0.06900
C2307       C  0.76040752  0.71034971  0.33266028     0.14000
C2308       C  0.73123121  0.71254789  0.32617554    -0.20400
C2309       C  0.71826068  0.72562259  0.29511634    -0.06900
C2310       C  0.73470806  0.73439930  0.26897748     0.14000
C2311       C  0.72184470  0.74711358  0.23466987    -0.23700
H2312       H  0.77603745  0.73940864  0.25517664     0.15200
H2313       H  0.71851498  0.70536092  0.34602170     0.15300
C2314       C  0.77339418  0.69884733  0.36749814    -0.23700
H2315       H  0.73749763  0.75180632  0.21659739     0.05500
H2316       H  0.71187428  0.76903744  0.23869635     0.08700
H2317       H  0.70618286  0.73045597  0.22228507     0.08700
H2318       H  0.78716398  0.71703291  0.38043609     0.08700
H2319       H  0.78565584  0.67828279  0.36412082     0.08700
H2320       H  0.75754208  0.69234368  0.38475345     0.05500
C2321       C  0.98486759  0.80740154  0.29201227    -0.20300
C2322       C  0.99837065  0.79079963  0.32025867    -0.06900
C2323       C  0.01525849  0.76653177  0.31395372     0.14000
C2324       C  0.01378973  0.75567360  0.28020667    -0.20400
C2325       C  0.99907592  0.77136323  0.25211320    -0.06900
C2326       C  0.98488668  0.79803852  0.25802211     0.14000
C2327       C  0.96978293  0.81726709  0.22935038    -0.23700
H2328       H  0.97282088  0.82679095  0.29619147     0.15200
H2329       H  0.02614730  0.73640903  0.27540592     0.15300
C2330       C  0.03694685  0.75438696  0.34166354    -0.23700
H2331       H  0.94809454  0.82019619  0.23450709     0.05500
H2332       H  0.96901626  0.80677930  0.20346984     0.08700
H2333       H  0.98007596  0.84027971  0.22849665     0.08700
H2334       H  0.04700741  0.73422907  0.33241165     0.08700
H2335       H  0.02875226  0.74663870  0.36567356     0.08700
H2336       H  0.05273352  0.77279488  0.34867614     0.05500
C2337       C  0.86169732  0.61399538  0.26389327    -0.20300
C2338       C  0.87756551  0.63638756  0.24849555    -0.06900
C2339       C  0.88908475  0.62815121  0.21803412     0.14000
C2340       C  0.88723288  0.59718966  0.20704780    -0.20400
C2341       C  0.87425829  0.57395740  0.22543953    -0.06900
C2342       C  0.85974178  0.58345677  0.25323352     0.14000
C2343       C  0.84304893  0.56249209  0.27479051    -0.23700
H2344       H  0.85140751  0.61989567  0.28598902     0.15200
H2345       H  0.89634678  0.59127965  0.18424295     0.15300
C2346       C  0.90332896  0.65151176  0.19672927    -0.23700
H2347       H  0.82179047  0.57124234  0.27363246     0.05500
H2348       H  0.85258660  0.56279351  0.30228471     0.08700
H2349       H  0.84118481  0.53832533  0.26699499     0.08700
H2350       H  0.92250602  0.66059031  0.21192806     0.08700
H2351       H  0.88915576  0.67056058  0.18865341     0.08700
H2352       H  0.90936110  0.64139471  0.17281461     0.05500
C2353       C  0.90286099  0.89404472  0.23632756    -0.20300
C2354       C  0.87946791  0.88056040  0.24892862    -0.06900
C2355       C  0.85524272  0.89765559  0.24727103     0.14000
C2356       C  0.85563445  0.92787590  0.23460729    -0.20400
C2357       C  0.87918065  0.94219193  0.22261261    -0.06900
C2358       C  0.90400116  0.92521232  0.22715512     0.14000
C2359       C  0.93286263  0.93928183  0.22998545    -0.23700
H2360       H  0.92190726  0.88143895  0.23853422     0.15200
H2361       H  0.83832419  0.94139331  0.23902317     0.15300
C2362       C  0.82961350  0.88569163  0.26183424    -0.23700
H2363       H  0.94512019  0.93097514  0.25424668     0.05500
H2364       H  0.93374443  0.96447551  0.23200652     0.08700
H2365       H  0.94320046  0.93206223  0.20783057     0.08700
H2366       H  0.83449472  0.88115604  0.29009850     0.08700
H2367       H  0.82170429  0.86441782  0.24834275     0.08700
H2368       H  0.81266333  0.90240348  0.25832028     0.05500
C2369       C  0.93479832  0.60987447  0.40979541    -0.20300
C2370       C  0.94451183  0.62853002  0.38420856    -0.06900
C2371       C  0.96726768  0.61840016  0.36814452     0.14000
C2372       C  0.97992171  0.59045580  0.37852262    -0.20400
C2373       C  0.96962763  0.57070063  0.40311936    -0.06900
C2374       C  0.94630320  0.58108836  0.41901374     0.14000
C2375       C  0.93172388  0.56179314  0.44442722    -0.23700
H2376       H  0.91768676  0.61779033  0.42236826     0.15200
H2377       H  0.99607545  0.58280382  0.36436396     0.15300
C2378       C  0.97737234  0.63509237  0.33765558    -0.23700
H2379       H  0.91300172  0.57297726  0.45138637     0.05500
H2380       H  0.94541145  0.55857673  0.46905232     0.08700
H2381       H  0.92459925  0.53932275  0.43327496     0.08700
H2382       H  0.99886773  0.64387929  0.34491186     0.08700
H2383       H  0.96395360  0.65414187  0.32787882     0.08700
H2384       H  0.97721327  0.61902992  0.31577433     0.05500
C2385       C  0.93911282  0.93417891  0.42042202    -0.20300
C2386       C  0.96628432  0.93796735  0.41070374    -0.06900
C2387       C  0.98090583  0.91063508  0.40766918     0.14000
C2388       C  0.96660969  0.88177604  0.40773961    -0.20400
C2389       C  0.93847698  0.87913331  0.41280385    -0.06900
C2390       C  0.92499297  0.90567900  0.42045375     0.14000
C2391       C  0.89519925  0.90410271  0.42732634    -0.23700
H2392       H  0.92797557  0.95427379  0.42611438     0.15200
H2393       H  0.97752015  0.86117698  0.40347479     0.15300
C2394       C  0.01161893  0.91046291  0.40771268    -0.23700
H2395       H  0.88763670  0.92701271  0.43312183     0.05500
H2396       H  0.89303823  0.88861429  0.44991965     0.08700
H2397       H  0.88189046  0.89514125  0.40423987     0.08700
H2398       H  0.02146079  0.93226671  0.41757227     0.08700
H2399       H  0.01665742  0.90542223  0.38133461     0.08700
H2400       H  0.02050198  0.89231943  0.42589703     0.05500
C2401       C  0.97780505  0.53552883  0.90304088     0.30000
C2402       C  0.97517987  0.97262051  0.90717146     0.30000
C2403       C  0.95245734  0.51916031  0.88392628    -0.06200
C2404       C  0.00176389  0.51978725  0.88641956    -0.07000
C2405       C  0.98105716  0.52060365  0.93935316    -0.06900
C2406       C  0.95152684  0.98903119  0.88543708    -0.06200
C2407       C  0.00060259  0.98735398  0.89009746    -0.07000
C2408       C  0.97800378  0.98900163  0.94206241    -0.06900
C2409       C  0.93456020  0.98002543  0.85607856    -0.32300
N2410       N  0.92471636  0.00539155  0.83874345     0.14200
C2411       C  0.93502172  0.52824346  0.85527089    -0.32300
H2412       H  0.93320851  0.55153302  0.84542240     0.16200
C2413       C  0.02293813  0.97813176  0.87369917    -0.31200
N2414       N  0.03851951  0.00311659  0.86501970     0.13000
C2415       C  0.02525252  0.52853039  0.87074283    -0.31200
C2416       C  0.98816828  0.97951741  0.97508125    -0.31500
N2417       N  0.99777598  0.50466018  0.99255624     0.13500
H2418       H  0.99154315  0.95597245  0.98344404     0.16100
C2419       C  0.99344622  0.52988750  0.97168778    -0.31500
H2420       H  0.99972558  0.55313215  0.97884027     0.16100
H2421       H  0.03304125  0.55170366  0.86742903     0.16100
H2422       H  0.93178262  0.95682287  0.84665363     0.16200
H2423       H  0.02747801  0.95487042  0.86810856     0.16100
Zr2424     Zr  0.87659376  0.70523248  0.84637840     2.17500
O2425       O  0.85422531  0.67338293  0.88759137    -0.51400
O2426       O  0.87376586  0.66869649  0.79910215    -0.74600
O2427       O  0.82528867  0.70511158  0.83064359    -0.81300
O2428       O  0.95142846  0.68219265  0.88176191    -0.83100
O2429       O  0.81521329  0.75120598  0.80413591    -0.78700
O2430       O  0.90749532  0.66259913  0.86917353    -0.90400
O2431       O  0.90107833  0.68597562  0.75952783    -0.76300
O2432       O  0.87099683  0.73407801  0.79309501    -0.85800
O2433       O  0.92109018  0.71056636  0.82725587    -0.85500
O2434       O  0.86062111  0.75512599  0.86016034    -0.72300
O2435       O  0.90541844  0.73168436  0.89254328    -0.84400
Zr2436     Zr  0.92663989  0.81623150  0.83290148     2.26400
Zr2437     Zr  0.85589892  0.78407340  0.80630304     2.06300
Zr2438     Zr  0.94997463  0.73726192  0.87220414     2.10000
Zr2439     Zr  0.91563828  0.73834598  0.77465552     1.78800
O2440       O  0.96283583  0.73199484  0.93457944    -0.93200
O2441       O  0.88727112  0.74634431  0.71905564    -0.41000
O2442       O  0.94370504  0.76680597  0.81875071    -0.77600
O2443       O  0.90039401  0.78820340  0.78618557    -0.96300
O2444       O  0.88252565  0.81128539  0.85237671    -0.89600
O2445       O  0.93348238  0.78623484  0.88559012    -0.92500
C2446       C  0.88540278  0.66531977  0.77141117     1.01300
C2447       C  0.93386354  0.65965291  0.87842211     1.14200
C2448       C  0.80811263  0.72456220  0.81500477     1.05000
O2449       O  0.83095229  0.78660585  0.74802283    -0.94600
O2450       O  0.86089839  0.83400642  0.77685794    -0.90400
O2451       O  0.90639693  0.84775458  0.78589952    -0.83500
C2452       C  0.88157312  0.85192857  0.77187211     1.11600
O2453       O  0.85895442  0.76040873  0.94510477    -0.96600
Zr2454     Zr  0.88962613  0.78204538  0.90536643     1.88900
O2455       O  0.90912517  0.85099823  0.87130233    -0.73200
O2456       O  0.82034350  0.81345676  0.82861830    -0.52500
O2457       O  0.85184841  0.81493101  0.91517432    -0.97200
O2458       O  0.91420868  0.76927197  0.96213189    -0.54400
O2459       O  0.91566137  0.82991568  0.92365563    -0.73800
C2460       C  0.91951128  0.85232359  0.90276615     0.98600
O2461       O  0.94886466  0.86537680  0.81744507    -0.62600
O2462       O  0.99322588  0.71830834  0.85668715    -0.57400
O2463       O  0.97313145  0.81862067  0.86294266    -0.94100
O2464       O  0.98923531  0.77349895  0.87910703    -0.92500
O2465       O  0.96171869  0.71847270  0.77334786    -0.92800
O2466       O  0.93938807  0.75208623  0.72475615    -0.91600
C2467       C  0.98912280  0.79695785  0.85889139     1.17400
H2468       H  0.92858571  0.69124862  0.82194363     0.33400
H2469       H  0.89963562  0.79852801  0.76393763     0.44200
H2470       H  0.94654983  0.79514913  0.90356149     0.37700
H2471       H  0.84265586  0.75260102  0.86802784     0.34200
H2472       H  0.87174845  0.73119202  0.71911376     0.26000
H2473       H  0.81902998  0.80472118  0.85208885     0.32000
H2474       H  0.85629480  0.83500986  0.90455955     0.37900
H2475       H  0.95860552  0.69678789  0.76644312     0.32300
H2476       H  0.00082476  0.70520172  0.87649203     0.31200
H2477       H  0.97388344  0.75085761  0.94117004     0.32900
H2478       H  0.90552856  0.78165836  0.97874720     0.31800
H2479       H  0.93839998  0.73339252  0.71048872     0.35800
H2480       H  0.93828810  0.88161002  0.82699148     0.28600
H2481       H  0.84299866  0.65794097  0.87325777     0.32800
H2482       H  0.84863602  0.74346381  0.93221940     0.35700
H2483       H  0.98790804  0.70401596  0.83740672     0.28300
H2484       H  0.96732673  0.86700090  0.83118179     0.41100
H2485       H  0.82972766  0.76515343  0.73993525     0.31200
H2486       H  0.87863697  0.76646416  0.72050863     0.38800
H2487       H  0.93287569  0.77881275  0.96204057     0.30700
H2488       H  0.82882019  0.83416626  0.83281051     0.30700
H2489       H  0.84055195  0.68677810  0.89618451     0.31000
C2490       C  0.87900510  0.53857064  0.72123580     0.30000
C2491       C  0.87985866  0.97683402  0.71906328     0.30000
C2492       C  0.85095022  0.52229272  0.70834184    -0.06200
C2493       C  0.89894918  0.52512688  0.69630411    -0.07000
C2494       C  0.88873093  0.52125692  0.75479857    -0.06900
C2495       C  0.85232599  0.99206895  0.70615749    -0.06200
C2496       C  0.89873246  0.99346682  0.69502387    -0.07000
C2497       C  0.88880224  0.99151634  0.75417428    -0.06900
C2498       C  0.82588427  0.98205252  0.69412354    -0.32300
N2499       N  0.80900387  0.00622168  0.69148890     0.14200
C2500       C  0.82351508  0.53052286  0.70067945    -0.32300
H2501       H  0.81554401  0.55330772  0.70223640     0.16200
C2502       C  0.91698429  0.98422068  0.67323452    -0.31200
N2503       N  0.93188568  0.00896675  0.66366488     0.13000
C2504       C  0.92124921  0.53407943  0.67819668    -0.31200
C2505       C  0.90086871  0.98119318  0.78613466    -0.31500
N2506       N  0.90926813  0.00599130  0.80562508     0.13500
H2507       H  0.90463684  0.95754763  0.79372505     0.16100
C2508       C  0.90110807  0.52953757  0.78704493    -0.31500
H2509       H  0.90584767  0.55277056  0.79545577     0.16100
H2510       H  0.93062687  0.55672635  0.67717015     0.16100
H2511       H  0.81873655  0.95856843  0.68971441     0.16200
H2512       H  0.92006579  0.96081997  0.66636721     0.16100
C2513       C  0.02360877  0.53233177  0.61490484     0.30000
C2514       C  0.01767562  0.96923625  0.61687517     0.30000
C2515       C  0.04364616  0.51444172  0.64068838    -0.06200
C2516       C  0.99537712  0.51997144  0.62559104    -0.07000
C2517       C  0.02527618  0.51661890  0.58028184    -0.06900
C2518       C  0.04139313  0.98296489  0.64228588    -0.06200
C2519       C  0.99218829  0.98752183  0.62503705    -0.07000
C2520       C  0.02237776  0.98405870  0.58151538    -0.06900
C2521       C  0.05748118  0.97264993  0.67209789    -0.32300
N2522       N  0.06829514  0.49706151  0.68846681     0.14200
C2523       C  0.06000722  0.52274918  0.67062353    -0.32300
H2524       H  0.06408906  0.54593426  0.67960994     0.16200
C2525       C  0.96672704  0.98090979  0.63610303    -0.31200
N2526       N  0.95586011  0.00731589  0.64623135     0.13000
C2527       C  0.97332962  0.53108093  0.64099653    -0.31200
C2528       C  0.01066776  0.97638099  0.54834483    -0.31500
N2529       N  0.00798859  0.50276856  0.52685433     0.13500
H2530       H  0.00123590  0.95433361  0.54098198     0.16100
C2531       C  0.01664381  0.52705630  0.54689675    -0.31500
H2532       H  0.01401830  0.55083192  0.53901537     0.16100
H2533       H  0.97123985  0.55426436  0.64930549     0.16100
H2534       H  0.05885337  0.94918431  0.68151714     0.16200
H2535       H  0.95774264  0.95817611  0.63857839     0.16100
Zr2536     Zr  0.12252409  0.70240769  0.67955512     2.17500
O2537       O  0.14062104  0.67365313  0.63453666    -0.51400
O2538       O  0.13228002  0.66058542  0.72355793    -0.74600
O2539       O  0.17301698  0.71290810  0.67875103    -0.81300
O2540       O  0.04944024  0.67099851  0.65468775    -0.83100
O2541       O  0.18269179  0.76092380  0.69950961    -0.78700
O2542       O  0.09398121  0.66190378  0.64834766    -0.90400
O2543       O  0.11752755  0.67479297  0.77352942    -0.76300
O2544       O  0.13689558  0.73029432  0.73111449    -0.85800
O2545       O  0.08534527  0.69682796  0.71395443    -0.85500
O2546       O  0.12855195  0.75541233  0.66118591    -0.72300
O2547       O  0.08260057  0.72472633  0.64581514    -0.84400
Zr2548     Zr  0.06665694  0.79885848  0.71493553     2.26400
Zr2549     Zr  0.14149137  0.78321096  0.71381624     2.06300
Zr2550     Zr  0.04574111  0.71940143  0.68137120     2.10000
Zr2551     Zr  0.10010060  0.72465958  0.76547021     1.78800
O2552       O  0.00973879  0.72620536  0.63268805    -0.93200
O2553       O  0.14164742  0.73216079  0.80670792    -0.41000
O2554       O  0.06092837  0.74681935  0.73334705    -0.77600
O2555       O  0.10555825  0.77725657  0.75030452    -0.96300
O2556       O  0.10292497  0.80599727  0.67993798    -0.89600
O2557       O  0.05167133  0.77164492  0.66277745    -0.92500
C2558       C  0.12771157  0.65531732  0.75534231     1.01300
C2559       C  0.06797458  0.65462229  0.64428842     1.14200
C2560       C  0.18984147  0.73587323  0.68705024     1.05000
O2561       O  0.17889780  0.78742939  0.76134033    -0.94600
O2562       O  0.13800542  0.82966014  0.74630653    -0.90400
O2563       O  0.09248420  0.83727539  0.74953908    -0.83500
C2564       C  0.11810404  0.84444897  0.75634261     1.11600
O2565       O  0.10870764  0.76198424  0.57775355    -0.96600
Zr2566     Zr  0.08854771  0.77788405  0.62872485     1.88900
O2567       O  0.05621183  0.84022126  0.67478851    -0.73200
O2568       O  0.16427082  0.82231631  0.68085038    -0.52500
O2569       O  0.11919686  0.81673569  0.60690114    -0.97200
O2570       O  0.05448784  0.76514432  0.57939506    -0.54400
O2571       O  0.06045186  0.82431926  0.62067585    -0.73800
C2572       C  0.05254877  0.84368112  0.64187178     0.98600
O2573       O  0.04010822  0.82700219  0.75282411    -0.62600
O2574       O  0.01350098  0.68083123  0.70086230    -0.57400
O2575       O  0.01829902  0.78501103  0.70471960    -0.94100
O2576       O  0.01337351  0.73619151  0.71906880    -0.92500
O2577       O  0.06240418  0.69653618  0.78887490    -0.92800
O2578       O  0.09373927  0.73778931  0.82440798    -0.91600
C2579       C  0.00909208  0.76439957  0.72390696     1.17400
H2580       H  0.08085404  0.67561267  0.71889323     0.33400
H2581       H  0.10995943  0.78756342  0.77212944     0.44200
H2582       H  0.03491873  0.77934738  0.65004953     0.37700
H2583       H  0.14332382  0.75700930  0.64676287     0.34200
H2584       H  0.15622556  0.72064249  0.79733085     0.26000
H2585       H  0.16508600  0.81309181  0.65792189     0.32000
H2586       H  0.11680051  0.83534420  0.62032477     0.37900
H2587       H  0.04874579  0.69193837  0.76846679     0.32300
H2588       H  0.00225658  0.67331090  0.67955960     0.31200
H2589       H  0.01326575  0.71036432  0.61594553     0.32900
H2590       H  0.05586564  0.78242584  0.56270716     0.31800
H2591       H  0.09787665  0.71893388  0.83854018     0.35800
H2592       H  0.05004408  0.82556237  0.77660870     0.28600
H2593       H  0.15648301  0.66232961  0.64645469     0.32800
H2594       H  0.12152084  0.74552297  0.58631164     0.35700
H2595       H  0.02491697  0.66326666  0.70972135     0.28300
H2596       H  0.04145144  0.84891798  0.74584719     0.41100
H2597       H  0.19032946  0.80530367  0.75494187     0.31200
H2598       H  0.14716858  0.75401287  0.80398895     0.38800
H2599       H  0.03632323  0.76758547  0.58780080     0.30700
H2600       H  0.15070416  0.83880950  0.67621996     0.30700
H2601       H  0.14876938  0.68925708  0.61968075     0.31000
C2602       C  0.11981091  0.96627288  0.80713520     0.30000
C2603       C  0.12468221  0.52792022  0.80143513     0.30000
C2604       C  0.10915309  0.98146110  0.77209455    -0.06200
C2605       C  0.10245927  0.98333234  0.83168750    -0.07000
C2606       C  0.14884867  0.98015523  0.81709681    -0.06900
C2607       C  0.11072955  0.51223685  0.76883690    -0.06200
C2608       C  0.10516992  0.51531153  0.82875298    -0.07000
C2609       C  0.15166496  0.51055728  0.81177464    -0.06900
C2610       C  0.09587429  0.52178160  0.73821716    -0.32300
N2611       N  0.08623818  0.99702323  0.72190509     0.14200
C2612       C  0.09295306  0.97193246  0.74211372    -0.32300
H2613       H  0.08586507  0.94866357  0.73623575     0.16200
C2614       C  0.08035752  0.52593362  0.83888457    -0.31200
N2615       N  0.06439776  0.00212197  0.85092347     0.13000
C2616       C  0.07715030  0.97613937  0.84345845    -0.31200
C2617       C  0.18012165  0.51691423  0.81482553    -0.31500
N2618       N  0.19411636  0.99097155  0.82346860     0.13500
H2619       H  0.18996257  0.53918263  0.81164702     0.16100
C2620       C  0.17492094  0.96799020  0.82328115    -0.31500
H2621       H  0.17967654  0.94385264  0.82452437     0.16100
H2622       H  0.06762324  0.95353585  0.84367565     0.16100
H2623       H  0.09298341  0.54533737  0.72967298     0.16200
H2624       H  0.07379926  0.54944983  0.83717963     0.16100
C2625       C  0.52616066  0.77728816  0.58889795     0.30000
C2626       C  0.52084606  0.71482520  0.58677288     0.30000
C2627       C  0.55019593  0.75921030  0.60786069    -0.06200
C2628       C  0.50077132  0.76340756  0.60578735    -0.07000
C2629       C  0.52082137  0.76351886  0.55239614    -0.06900
C2630       C  0.54710307  0.72774049  0.60778862    -0.06200
C2631       C  0.49783985  0.73103821  0.60458251    -0.07000
C2632       C  0.51861157  0.73169108  0.55158109    -0.06900
C2633       C  0.56237325  0.71686886  0.63796015    -0.32300
N2634       N  0.57563504  0.74085261  0.65519011     0.14200
C2635       C  0.56810988  0.76666951  0.63718321    -0.32300
H2636       H  0.57286662  0.78955093  0.64661723     0.16200
C2637       C  0.47288958  0.72367798  0.61742018    -0.31200
N2638       N  0.46078644  0.74983550  0.62638183     0.13000
C2639       C  0.47745838  0.77416734  0.61886723    -0.31200
C2640       C  0.50456485  0.72382336  0.51972047    -0.31500
N2641       N  0.49888725  0.74969075  0.50057359     0.13500
H2642       H  0.49777934  0.70086431  0.51199465     0.16100
C2643       C  0.50710449  0.77405072  0.52103122    -0.31500
H2644       H  0.50250599  0.79771854  0.51438164     0.16100
H2645       H  0.47249045  0.79798604  0.62124535     0.16100
H2646       H  0.56141420  0.69362399  0.64808596     0.16200
H2647       H  0.46334611  0.70116835  0.61862378     0.16100
Zr2648     Zr  0.62814831  0.94915983  0.65939228     2.17500
O2649       O  0.65309673  0.92673658  0.61585752    -0.51400
O2650       O  0.63544458  0.90797694  0.70399674    -0.74600
O2651       O  0.67786278  0.96186554  0.67391247    -0.81300
O2652       O  0.56047139  0.91364471  0.61295915    -0.83100
O2653       O  0.67864975  0.50852022  0.69984487    -0.78700
O2654       O  0.60468989  0.90163166  0.63376768    -0.90400
O2655       O  0.60467961  0.91431812  0.74232495    -0.76300
O2656       O  0.62712372  0.97152634  0.71498459    -0.85800
O2657       O  0.58289330  0.94127550  0.67445458    -0.85500
O2658       O  0.63434194  0.50548242  0.64789996    -0.72300
O2659       O  0.59894283  0.97543438  0.61361287    -0.84400
Zr2660     Zr  0.55615288  0.53833358  0.67495301     2.26400
Zr2661     Zr  0.63277658  0.52749618  0.70377745     2.06300
Zr2662     Zr  0.55367108  0.96471184  0.62830781     2.10000
Zr2663     Zr  0.58152442  0.96196386  0.72971547     1.78800
O2664       O  0.54766874  0.95763456  0.56577677    -0.93200
O2665       O  0.60456781  0.96885959  0.78849432    -0.41000
O2666       O  0.54655237  0.48498565  0.68187255    -0.77600
O2667       O  0.58786366  0.51671132  0.72040042    -0.96300
O2668       O  0.60113680  0.55191514  0.66070813    -0.89600
O2669       O  0.55894313  0.51965596  0.61867705    -0.92500
C2670       C  0.62342170  0.89914284  0.73053312     1.01300
C2671       C  0.57977306  0.89469711  0.61983312     1.14200
C2672       C  0.69184666  0.98425775  0.68958863     1.05000
O2673       O  0.65391970  0.52288732  0.76374767    -0.98200
O2674       O  0.61775987  0.57302314  0.73169981    -0.90400
O2675       O  0.57170063  0.57796971  0.71546933    -0.83500
C2676       C  0.59473870  0.58682607  0.73219582     1.11600
O2677       O  0.63732292  0.52774470  0.56442967    -0.96600
Zr2678     Zr  0.60341604  0.53149267  0.60513008     1.88900
O2679       O  0.54997492  0.58286022  0.63934491    -0.73200
O2680       O  0.66313405  0.57060848  0.69125584    -0.52500
O2681       O  0.63865136  0.57235487  0.60738853    -0.97200
O2682       O  0.58552979  0.52188687  0.54481895    -0.54400
O2683       O  0.57363294  0.57688957  0.59322347    -0.73800
C2684       C  0.55637105  0.59109822  0.60969935     0.98600
O2685       O  0.52233099  0.55070104  0.71324644    -0.62600
O2686       O  0.51230028  0.93708780  0.64262256    -0.57400
O2687       O  0.50994222  0.53097361  0.64286649    -0.94100
O2688       O  0.51222238  0.98959356  0.60688820    -0.92500
O2689       O  0.54653166  0.92187760  0.73598063    -0.92800
O2690       O  0.54910283  0.97779886  0.76846973    -0.91600
C2691       C  0.49805103  0.51440439  0.61774054     1.17400
H2692       H  0.57814304  0.91990563  0.67754361     0.33400
H2693       H  0.58598071  0.52578514  0.74241650     0.44200
H2694       H  0.54633910  0.52899475  0.60069066     0.37700
H2695       H  0.65227362  0.50913403  0.64026206     0.34200
H2696       H  0.59676995  0.95221520  0.80235914     0.26000
H2697       H  0.67886544  0.56995312  0.70997975     0.32000
H2698       H  0.62872692  0.59133014  0.61091111     0.37900
H2699       H  0.55002819  0.91487496  0.76048682     0.32300
H2700       H  0.51128193  0.91763030  0.62976344     0.31200
H2701       H  0.52818567  0.95051282  0.56012041     0.32900
H2702       H  0.57233781  0.53846213  0.53820692     0.31800
H2703       H  0.53561454  0.49384954  0.75249206     0.35800
H2704       H  0.51052576  0.56609633  0.70011706     0.28600
H2705       H  0.66794076  0.91479728  0.62917093     0.32800
H2706       H  0.64938073  0.51088411  0.57385778     0.35700
H2707       H  0.51635416  0.93106758  0.66738498     0.28300
H2708       H  0.51046931  0.53195084  0.71354647     0.41100
H2709       H  0.67311478  0.53091402  0.76354846     0.31200
H2710       H  0.62392919  0.96301087  0.78745211     0.38800
H2711       H  0.57375352  0.50308363  0.54563355     0.30700
H2712       H  0.67106289  0.56473109  0.67012648     0.30700
H2713       H  0.66273314  0.94432330  0.60563951     0.31000
C2714       C  0.61329633  0.70865362  0.77849733     0.30000
C2715       C  0.62308309  0.77090859  0.77434241     0.30000
C2716       C  0.60633479  0.72389722  0.74233150    -0.06200
C2717       C  0.59768692  0.72831567  0.80178385    -0.07000
C2718       C  0.64370432  0.71928729  0.78779569    -0.06900
C2719       C  0.61029300  0.75536953  0.74074316    -0.06200
C2720       C  0.60169400  0.76028974  0.79952402    -0.07000
C2721       C  0.64855333  0.75100218  0.78671418    -0.06900
C2722       C  0.59939006  0.76507937  0.70800869    -0.32300
N2723       N  0.58996924  0.74014408  0.68918367     0.14200
C2724       C  0.59450599  0.71481034  0.70965778    -0.32300
H2725       H  0.58881025  0.69168076  0.70161624     0.16200
C2726       C  0.57808017  0.77238997  0.81122043    -0.31200
N2727       N  0.56191499  0.74901236  0.82243950     0.13000
C2728       C  0.57378040  0.72224827  0.81637433    -0.31200
C2729       C  0.67702368  0.75581389  0.79212333    -0.31500
N2730       N  0.68949006  0.72815141  0.79487614     0.13500
H2731       H  0.68788304  0.77780708  0.79195701     0.16100
C2732       C  0.66940414  0.70588718  0.79107047    -0.31500
H2733       H  0.67346766  0.68196378  0.78804128     0.16100
H2734       H  0.56468847  0.69965689  0.81964583     0.16100
H2735       H  0.59785656  0.78867201  0.69909488     0.16200
H2736       H  0.57199282  0.79606659  0.80914532     0.16100
C2737       C  0.47443160  0.78434845  0.87253188     0.30000
C2738       C  0.47220613  0.72141314  0.87319385     0.30000
C2739       C  0.44973065  0.76917305  0.85005551    -0.06200
C2740       C  0.49954997  0.76873685  0.85884378    -0.07000
C2741       C  0.47440236  0.76868548  0.90838554    -0.06900
C2742       C  0.44882745  0.73731997  0.85022244    -0.06200
C2743       C  0.49768042  0.73646448  0.85844092    -0.07000
C2744       C  0.47248330  0.73672422  0.90841259    -0.06900
C2745       C  0.43482417  0.72844387  0.81875275    -0.32300
N2746       N  0.42615932  0.75364658  0.80024857     0.14200
C2747       C  0.43565969  0.77864213  0.81858733    -0.32300
H2748       H  0.43477946  0.80195433  0.80858108     0.16200
C2749       C  0.51943265  0.72663461  0.84234940    -0.31200
N2750       N  0.53601117  0.75110322  0.83558032     0.13000
C2751       C  0.52427311  0.77694625  0.84570071    -0.31200
C2752       C  0.48085758  0.72659976  0.94177133    -0.31500
N2753       N  0.48767799  0.75125593  0.96217862     0.13500
H2754       H  0.48398159  0.70291912  0.94970280     0.16100
C2755       C  0.48529982  0.77690099  0.94170904    -0.31500
H2756       H  0.49247230  0.79966736  0.94976101     0.16100
H2757       H  0.53347535  0.79970613  0.84431659     0.16100
H2758       H  0.43342811  0.70534313  0.80893551     0.16200
H2759       H  0.52257331  0.70330896  0.83541948     0.16100
Zr2760     Zr  0.37626603  0.95065922  0.80947634     2.17500
O2761       O  0.36098651  0.91942303  0.85654980    -0.51400
O2762       O  0.36480673  0.91026383  0.76633305    -0.74600
O2763       O  0.32630801  0.95762258  0.81504451    -0.81300
O2764       O  0.45109299  0.92496602  0.81965612    -0.83100
O2765       O  0.31645754  0.50815613  0.80294307    -0.78700
O2766       O  0.40841384  0.90979352  0.83182979    -0.90400
O2767       O  0.36654270  0.93116493  0.71294073    -0.76300
O2768       O  0.35434849  0.98305576  0.76393854    -0.85800
O2769       O  0.40746360  0.95014951  0.76661669    -0.85500
O2770       O  0.37423320  0.50147286  0.82906316    -0.72300
O2771       O  0.42013011  0.97089596  0.83747402    -0.84400
Zr2772     Zr  0.42624989  0.55467698  0.76909320     2.26400
Zr2773     Zr  0.35479827  0.53426407  0.78165860     2.06300
Zr2774     Zr  0.44924733  0.97421130  0.79226819     2.10000
Zr2775     Zr  0.38499987  0.98247906  0.72209292     1.78800
O2776       O  0.49398604  0.98701523  0.82480617    -0.93200
O2777       O  0.33828311  0.98832434  0.69265097    -0.41000
O2778       O  0.41739621  0.50377130  0.76227043    -0.77600
O2779       O  0.38427585  0.53419201  0.73691256    -0.96300
O2780       O  0.39644284  0.55577868  0.81228520    -0.89600
O2781       O  0.44940122  0.52413515  0.81416389    -0.92500
C2782       C  0.36368111  0.90816310  0.73315166     1.01300
C2783       C  0.43455074  0.90546815  0.83139766     1.14200
C2784       C  0.30907879  0.97991157  0.81051566     1.05000
O2785       O  0.31197548  0.53845201  0.74242504    -0.94600
O2786       O  0.35470439  0.58217513  0.74680608    -0.90400
O2787       O  0.39882731  0.59226075  0.73585908    -0.83500
C2788       C  0.37308008  0.59806735  0.73245834     1.11600
O2789       O  0.41432193  0.49382687  0.91082457    -0.96600
Zr2790     Zr  0.41759845  0.52175686  0.85659120     1.88900
O2791       O  0.43937653  0.59301726  0.81334957    -0.73200
O2792       O  0.33921398  0.57124606  0.82072176    -0.52500
O2793       O  0.38595315  0.54322108  0.89295292    -0.97200
O2794       O  0.46148824  0.51480815  0.89318286    -0.54400
O2795       O  0.43757035  0.57260406  0.86713080    -0.73800
C2796       C  0.44283471  0.59459464  0.84651584     0.98600
O2797       O  0.46546460  0.58553541  0.75358186    -0.62600
O2798       O  0.48197166  0.95078385  0.75871201    -0.57400
O2799       O  0.45781022  0.53925311  0.73084402    -0.94100
O2800       O  0.45203227  0.98687435  0.73202135    -0.92500
O2801       O  0.41063131  0.95447403  0.68393092    -0.92800
O2802       O  0.39746523  0.01121427  0.67170394    -0.91600
C2803       C  0.45543547  0.51425766  0.71441799     1.17400
H2804       H  0.41173334  0.93013939  0.75878596     0.33400
H2805       H  0.37757798  0.54465188  0.71557573     0.44200
H2806       H  0.46735642  0.53292659  0.82243375     0.37700
H2807       H  0.36178017  0.50069197  0.84654792     0.34200
H2808       H  0.33641663  0.01067781  0.68841127     0.26000
H2809       H  0.34880736  0.59079725  0.81546166     0.32000
H2810       H  0.37784261  0.56089419  0.87933114     0.37900
H2811       H  0.39752462  0.95077393  0.66274713     0.32300
H2812       H  0.49759846  0.94440600  0.77578527     0.31200
H2813       H  0.50556697  0.99473216  0.80711478     0.32900
H2814       H  0.47475497  0.52981508  0.88453028     0.31800
H2815       H  0.38863317  0.49892133  0.64860343     0.35800
H2816       H  0.45909754  0.60694777  0.75247444     0.28600
H2817       H  0.34340278  0.90920339  0.84682097     0.32800
H2818       H  0.40402101  0.47459042  0.90381610     0.35700
H2819       H  0.47277001  0.93136335  0.75017673     0.28300
H2820       H  0.47951648  0.58473544  0.77429398     0.41100
H2821       H  0.30246591  0.55605396  0.75094180     0.31200
H2822       H  0.33889701  0.97971974  0.66934924     0.38800
H2823       H  0.46783689  0.49456974  0.88671253     0.30700
H2824       H  0.31958135  0.57448973  0.81177367     0.30700
H2825       H  0.35571131  0.93434413  0.87332295     0.31000
C2826       C  0.37570049  0.72163458  0.68426709     0.30000
C2827       C  0.37652196  0.78442291  0.68232945     0.30000
C2828       C  0.38858307  0.73760802  0.71714011    -0.06200
C2829       C  0.39389538  0.73618224  0.65735316    -0.07000
C2830       C  0.34818557  0.73656921  0.67326004    -0.06900
C2831       C  0.38878766  0.76902069  0.71641640    -0.06200
C2832       C  0.39497398  0.76921891  0.65657575    -0.07000
C2833       C  0.34824807  0.76793938  0.67259752    -0.06900
C2834       C  0.40361026  0.77878776  0.74709037    -0.32300
N2835       N  0.41194441  0.75366041  0.76631668     0.14200
C2836       C  0.40331231  0.72832099  0.74792499    -0.32300
H2837       H  0.40741870  0.70486302  0.75604006     0.16200
C2838       C  0.42097516  0.77700523  0.64622975    -0.31200
N2839       N  0.43420179  0.75124224  0.63840723     0.13000
C2840       C  0.41841321  0.72657900  0.64666336    -0.31200
C2841       C  0.32067176  0.77613429  0.66718790    -0.31500
N2842       N  0.30432002  0.75019668  0.66520506     0.13500
H2843       H  0.31310594  0.79922319  0.66716870     0.16100
C2844       C  0.32110257  0.72593321  0.66780562    -0.31500
H2845       H  0.31402476  0.70224173  0.66945859     0.16100
H2846       H  0.42536822  0.70322983  0.64812935     0.16100
H2847       H  0.40817165  0.80234605  0.75449672     0.16200
H2848       H  0.43045021  0.79972263  0.64710290     0.16100
C2849       C  0.37511230  0.87381399  0.68633621    -0.20300
C2850       C  0.36265486  0.87724075  0.71710002    -0.06900
C2851       C  0.35204904  0.85080953  0.73274595     0.14000
C2852       C  0.35586710  0.82218691  0.71875222    -0.20400
C2853       C  0.37093131  0.81816845  0.69007502    -0.06900
C2854       C  0.37867953  0.84483990  0.67212372     0.14000
C2855       C  0.38882585  0.84424813  0.63720481    -0.23700
H2856       H  0.38251083  0.89397360  0.67318140     0.15200
H2857       H  0.34792148  0.80212116  0.73160537     0.15300
C2858       C  0.33685786  0.85212079  0.76429125    -0.23700
H2859       H  0.37661620  0.86029082  0.61920783     0.05500
H2860       H  0.38584967  0.82149813  0.62514260     0.08700
H2861       H  0.41093026  0.85172484  0.63947406     0.08700
H2862       H  0.31958770  0.86832562  0.75936833     0.08700
H2863       H  0.35123379  0.85941415  0.78723807     0.08700
H2864       H  0.32789484  0.82934386  0.77086683     0.05500
C2865       C  0.37804545  0.66482818  0.67126810    -0.20300
C2866       C  0.37013798  0.68788300  0.69230037    -0.06900
C2867       C  0.35522107  0.67899957  0.72094626     0.14000
C2868       C  0.35337137  0.64824125  0.73060515    -0.20400
C2869       C  0.36509880  0.62597551  0.71263829    -0.06900
C2870       C  0.37500378  0.63378927  0.68076875     0.14000
C2871       C  0.38127193  0.60989618  0.65576797    -0.23700
H2872       H  0.38636438  0.67081739  0.64739171     0.15200
H2873       H  0.34466089  0.64190231  0.75425236     0.15300
C2874       C  0.34162100  0.70044995  0.74373021    -0.23700
H2875       H  0.36699253  0.61233770  0.63133530     0.05500
H2876       H  0.37859597  0.58621530  0.66602580     0.08700
H2877       H  0.40264830  0.61362322  0.64958131     0.08700
H2878       H  0.31935807  0.69387156  0.74283828     0.08700
H2879       H  0.34244002  0.72499015  0.73664828     0.08700
H2880       H  0.35145957  0.69813910  0.77098670     0.05500
C2881       C  0.48072632  0.83577506  0.84405530    -0.20300
C2882       C  0.46960210  0.81909526  0.87052950    -0.06900
C2883       C  0.44684561  0.83222156  0.88485083     0.14000
C2884       C  0.43664772  0.86074009  0.87237167    -0.20400
C2885       C  0.44725276  0.87629942  0.84501669    -0.06900
C2886       C  0.46986244  0.86357540  0.83082261     0.14000
C2887       C  0.48165383  0.87762847  0.79980966    -0.23700
H2888       H  0.49602015  0.82564372  0.83052204     0.15200
H2889       H  0.41953328  0.87056265  0.88334865     0.15300
C2890       C  0.43126624  0.81589101  0.91143240    -0.23700
H2891       H  0.49689030  0.86268754  0.78981571     0.05500
H2892       H  0.49275906  0.89945092  0.80732954     0.08700
H2893       H  0.46479855  0.88144085  0.77831212     0.08700
H2894       H  0.44455166  0.81395648  0.93653080     0.08700
H2895       H  0.42350458  0.79297626  0.90217196     0.08700
H2896       H  0.41288359  0.82869016  0.91672403     0.05500
C2897       C  0.47925105  0.63322608  0.86892796    -0.20300
C2898       C  0.45118835  0.62468074  0.86136001    -0.06900
C2899       C  0.43088084  0.64584078  0.86619075     0.14000
C2900       C  0.43896056  0.67613095  0.87405474    -0.20400
C2901       C  0.46681207  0.68645300  0.87503233    -0.06900
C2902       C  0.48728946  0.66371738  0.87769463     0.14000
C2903       C  0.51675113  0.66970613  0.89322305    -0.23700
H2904       H  0.49486252  0.61608998  0.86824343     0.15200
H2905       H  0.42302109  0.69237474  0.87698333     0.15300
C2906       C  0.40057108  0.63672996  0.86167800    -0.23700
H2907       H  0.52141144  0.65460372  0.91643718     0.05500
H2908       H  0.52053131  0.69358642  0.90218027     0.08700
H2909       H  0.53119513  0.66419416  0.87439556     0.08700
H2910       H  0.39672141  0.61811823  0.88053829     0.08700
H2911       H  0.39428869  0.62847606  0.83491573     0.08700
H2912       H  0.38735062  0.65626859  0.86608756     0.05500
C2913       C  0.45634322  0.54187025  0.62095952    -0.20300
C2914       C  0.46766685  0.51550033  0.60937008    -0.06900
C2915       C  0.45697603  0.48833664  0.62271250     0.14000
C2916       C  0.45632678  0.48743589  0.65862372    -0.20400
C2917       C  0.45592299  0.51531140  0.67653076    -0.06900
C2918       C  0.45282202  0.54307835  0.65628602     0.14000
C2919       C  0.44654168  0.57344595  0.67077795    -0.23700
H2920       H  0.45490020  0.56221011  0.60455995     0.15200
H2921       H  0.45728747  0.46554536  0.67209605     0.15300
C2922       C  0.45188557  0.46013667  0.60099403    -0.23700
H2923       H  0.46425086  0.58169246  0.68909469     0.05500
H2924       H  0.42757656  0.57120856  0.68383829     0.08700
H2925       H  0.44331179  0.59122027  0.65003531     0.08700
H2926       H  0.44559780  0.44017934  0.61670703     0.08700
H2927       H  0.47250410  0.94924693  0.59329989     0.08700
H2928       H  0.43496542  0.46450376  0.57975679     0.05500
C2929       C  0.64294330  0.84683581  0.72927653    -0.20300
C2930       C  0.62976178  0.86839722  0.74737364    -0.06900
C2931       C  0.62071380  0.85885924  0.77955669     0.14000
C2932       C  0.62111109  0.82756139  0.78934000    -0.20400
C2933       C  0.63008676  0.80518896  0.76811315    -0.06900
C2934       C  0.64397371  0.81575227  0.73951811     0.14000
C2935       C  0.65918719  0.79539016  0.71761742    -0.23700
H2936       H  0.65149672  0.85388513  0.70579255     0.15200
H2937       H  0.61385706  0.82063437  0.81354768     0.15300
C2938       C  0.61055870  0.88113830  0.80411604    -0.23700
H2939       H  0.64938277  0.79631140  0.69026231     0.05500
H2940       H  0.68088894  0.80403038  0.71834652     0.08700
H2941       H  0.65974517  0.77109797  0.72600101     0.08700
H2942       H  0.59002232  0.88971450  0.79338619     0.08700
H2943       H  0.62571305  0.90055042  0.80891780     0.08700
H2944       H  0.60804372  0.87016352  0.82962631     0.05500
C2945       C  0.61696802  0.62134417  0.77873695    -0.20300
C2946       C  0.59490463  0.61538757  0.75252099    -0.06900
C2947       C  0.57402653  0.63766401  0.74582778     0.14000
C2948       C  0.57875688  0.66655988  0.76064238    -0.20400
C2949       C  0.60452726  0.67464656  0.77890729    -0.06900
C2950       C  0.62097604  0.65048656  0.79359740     0.14000
C2951       C  0.63909237  0.65333268  0.82773460    -0.23700
H2952       H  0.63097545  0.60323281  0.78786611     0.15200
H2953       H  0.56370057  0.68422145  0.75397786     0.15300
C2954       C  0.54765578  0.63270020  0.72147742    -0.23700
H2955       H  0.66051786  0.64656329  0.82526757     0.05500
H2956       H  0.63090078  0.63748567  0.84697667     0.08700
H2957       H  0.63909385  0.67677382  0.83834171     0.08700
H2958       H  0.53532854  0.61328239  0.73109141     0.08700
H2959       H  0.55252908  0.62822347  0.69487695     0.08700
H2960       H  0.53438499  0.65312397  0.71958764     0.05500
C2961       C  0.53235439  0.82612421  0.62179854    -0.20300
C2962       C  0.53604078  0.81100011  0.59108553    -0.06900
C2963       C  0.55824409  0.82217856  0.57246777     0.14000
C2964       C  0.57345946  0.84890533  0.58325124    -0.20400
C2965       C  0.56990633  0.86285731  0.61416608    -0.06900
C2966       C  0.54993220  0.85048579  0.63440374     0.14000
C2967       C  0.54800716  0.86210387  0.67032180    -0.23700
H2968       H  0.51799725  0.81654303  0.63844726     0.15200
H2969       H  0.58851028  0.85886894  0.56763310     0.15300
C2970       C  0.56804317  0.80549783  0.54266070    -0.23700
H2971       H  0.53274150  0.84852046  0.68371993     0.05500
H2972       H  0.54146972  0.88615734  0.66896207     0.08700
H2973       H  0.56848668  0.86054403  0.68628229     0.08700
H2974       H  0.57338275  0.78155448  0.55034737     0.08700
H2975       H  0.55225890  0.80609495  0.51967612     0.08700
H2976       H  0.58706156  0.81642860  0.53431708     0.05500
C2977       C  0.50853581  0.65876709  0.59789900    -0.20300
C2978       C  0.52508493  0.68041774  0.58273348    -0.06900
C2979       C  0.54888207  0.66974912  0.56832797     0.14000
C2980       C  0.55763750  0.63964326  0.57540538    -0.20400
C2981       C  0.54303137  0.61950970  0.59508650    -0.06900
C2982       C  0.51695929  0.62848062  0.60383718     0.14000
C2983       C  0.49789929  0.60651534  0.62012962    -0.23700
H2984       H  0.48978489  0.66553229  0.60712880     0.15200
H2985       H  0.57689682  0.63238431  0.56725112     0.15300
C2986       C  0.56629679  0.68977726  0.54665067    -0.23700
H2987       H  0.47631884  0.61460392  0.61636783     0.05500
H2988       H  0.50449583  0.60414639  0.64840637     0.08700
H2989       H  0.49808951  0.58398327  0.60749375     0.08700
H2990       H  0.57511540  0.71023923  0.56085612     0.08700
H2991       H  0.55383215  0.69689103  0.52218125     0.08700
H2992       H  0.58410366  0.67728833  0.53900752     0.05500
C2993       C  0.24295507  0.99144312  0.84976470    -0.20300
C2994       C  0.22307819  0.98618590  0.82098869    -0.06900
C2995       C  0.23288324  0.46821410  0.79174570     0.14000
C2996       C  0.26153493  0.46397319  0.79223089    -0.20400
C2997       C  0.27993302  0.97560437  0.81716564    -0.06900
C2998       C  0.27126652  0.98631822  0.84815453     0.14000
C2999       C  0.29213009  0.99296757  0.87923545    -0.23700
H3000       H  0.23628457  0.99980335  0.87338787     0.15200
H3001       H  0.26906471  0.45230337  0.77098622     0.15300
C3002       C  0.21338951  0.45599220  0.76170406    -0.23700
H3003       H  0.28208493  0.00088553  0.90151963     0.05500
H3004       H  0.30711645  0.01114771  0.87264598     0.08700
H3005       H  0.30350120  0.97179558  0.88739226     0.08700
H3006       H  0.20077625  0.47488134  0.74912460     0.08700
H3007       H  0.19961406  0.43773471  0.77079620     0.08700
H3008       H  0.22470360  0.44578361  0.74176820     0.05500
C3009       C  0.23841541  0.75196310  0.70586809    -0.20300
C3010       C  0.21973640  0.73537470  0.68205856    -0.06900
C3011       C  0.22951891  0.72376583  0.65218581     0.14000
C3012       C  0.25730350  0.72971577  0.64664740    -0.20400
C3013       C  0.27541935  0.74747415  0.66982482    -0.06900
C3014       C  0.26586647  0.75825356  0.70013773     0.14000
C3015       C  0.28469226  0.77569702  0.72715337    -0.23700
H3016       H  0.23124327  0.76077775  0.72900769     0.15200
H3017       H  0.26502298  0.72060529  0.62403409     0.15300
C3018       C  0.21070254  0.70597188  0.62566182    -0.23700
H3019       H  0.27431243  0.78041991  0.75032153     0.05500
H3020       H  0.29097475  0.79818955  0.71640043     0.08700
H3021       H  0.30330062  0.76217585  0.73590273     0.08700
H3022       H  0.19292894  0.72019199  0.61523420     0.08700
H3023       H  0.20310475  0.68465459  0.63783084     0.08700
H3024       H  0.22155706  0.69927188  0.60354503     0.05500
C3025       C  0.13764134  0.92573417  0.77324010    -0.20300
C3026       C  0.12282668  0.93206318  0.80139546    -0.06900
C3027       C  0.11313900  0.90698147  0.82046896     0.14000
C3028       C  0.11263076  0.87762431  0.80594091    -0.20400
C3029       C  0.12447113  0.87272133  0.77527359    -0.06900
C3030       C  0.13856806  0.89670888  0.75995261     0.14000
C3031       C  0.15246313  0.89265245  0.72770723    -0.23700
H3032       H  0.14723037  0.94442599  0.75984600     0.15200
H3033       H  0.10315078  0.85841940  0.81864505     0.15300
C3034       C  0.10597392  0.90936662  0.85679805    -0.23700
H3035       H  0.16187693  0.91448422  0.71889808     0.05500
H3036       H  0.13703012  0.88442153  0.70622311     0.08700
H3037       H  0.16926992  0.87591985  0.73299089     0.08700
H3038       H  0.08366133  0.90388020  0.85741600     0.08700
H3039       H  0.11157489  0.93214480  0.86800492     0.08700
H3040       H  0.11813247  0.89254409  0.87379346     0.05500
C3041       C  0.12241061  0.58439078  0.81441694    -0.20300
C3042       C  0.13071372  0.56170960  0.79340782    -0.06900
C3043       C  0.14403604  0.57116965  0.76379802     0.14000
C3044       C  0.14393503  0.60203125  0.75331709    -0.20400
C3045       C  0.13228601  0.62430627  0.77187524    -0.06900
C3046       C  0.12322575  0.61553572  0.80451777     0.14000
C3047       C  0.11382551  0.63814541  0.82937257    -0.23700
H3048       H  0.11485027  0.57776190  0.83857065     0.15200
H3049       H  0.15233551  0.60850519  0.72953980     0.15300
C3050       C  0.15767179  0.54998560  0.74088363    -0.23700
H3051       H  0.10957508  0.62696162  0.85418435     0.05500
H3052       H  0.09430112  0.64874635  0.81790825     0.08700
H3053       H  0.13024154  0.65601494  0.83590022     0.08700
H3054       H  0.14709953  0.55149717  0.71390205     0.08700
H3055       H  0.15760134  0.52556990  0.74871024     0.08700
H3056       H  0.17965053  0.55739622  0.74072456     0.05500
C3057       C  0.03415412  0.91918727  0.59467177    -0.20300
C3058       C  0.01907748  0.93377216  0.61862389    -0.06900
C3059       C  0.01278353  0.91588007  0.64786291     0.14000
C3060       C  0.02076675  0.88519212  0.65127281    -0.20400
C3061       C  0.03809083  0.87226973  0.62931420    -0.06900
C3062       C  0.04399192  0.88921681  0.59982784     0.14000
C3063       C  0.06240946  0.87700406  0.57506534    -0.23700
H3064       H  0.04124356  0.93205188  0.57335673     0.15200
H3065       H  0.01567086  0.87210979  0.67379015     0.15300
C3066       C  0.00089146  0.92836059  0.67863849    -0.23700
H3067       H  0.06525799  0.89356695  0.55362359     0.05500
H3068       H  0.05310505  0.85555926  0.56322929     0.08700
H3069       H  0.08314906  0.87239060  0.58912308     0.08700
H3070       H  0.97941250  0.91933717  0.67863302     0.08700
H3071       H  0.00160150  0.95356701  0.67989850     0.08700
H3072       H  0.01325212  0.92061244  0.70306396     0.05500
C3073       C  0.02858449  0.62083211  0.61936681    -0.20300
C3074       C  0.05752338  0.62511000  0.62793413    -0.06900
C3075       C  0.07463428  0.60039170  0.62285083     0.14000
C3076       C  0.06221080  0.57181779  0.61381298    -0.20400
C3077       C  0.03338806  0.56615153  0.61323584    -0.06900
C3078       C  0.01639464  0.59192142  0.61102615     0.14000
C3079       C  0.98633967  0.59078745  0.59647540    -0.23700
H3080       H  0.01510257  0.64019237  0.61940087     0.15200
H3081       H  0.07547991  0.55282451  0.61050550     0.15300
C3082       C  0.10578127  0.60298834  0.62851514    -0.23700
H3083       H  0.98307122  0.60700137  0.57402864     0.05500
H3084       H  0.97340976  0.59805760  0.61630944     0.08700
H3085       H  0.97940144  0.56791076  0.58645527     0.08700
H3086       H  0.11293213  0.60887460  0.65590501     0.08700
H3087       H  0.11311700  0.62076033  0.61070494     0.08700
H3088       H  0.11550953  0.58109338  0.62326421     0.05500
C3089       C  0.73543999  0.49919639  0.71809633    -0.20300
C3090       C  0.72245532  0.98643695  0.68992627    -0.06900
C3091       C  0.73542865  0.98385891  0.65939140     0.14000
C3092       C  0.76373499  0.99190130  0.66008722    -0.20400
C3093       C  0.77944668  0.00239163  0.69047238    -0.06900
C3094       C  0.76398726  0.50557683  0.72022224     0.14000
C3095       C  0.77927525  0.51608802  0.75406186    -0.23700
H3096       H  0.72477613  0.50334308  0.74040624     0.15200
H3097       H  0.77384336  0.98970215  0.63695474     0.15300
C3098       C  0.71950484  0.97331648  0.62585324    -0.23700
H3099       H  0.76562421  0.51629831  0.77494375     0.05500
H3100       H  0.78732039  0.53975964  0.75064477     0.08700
H3101       H  0.79659065  0.50055228  0.76249648     0.08700
H3102       H  0.70175822  0.98847400  0.61829583     0.08700
H3103       H  0.71192308  0.94932975  0.62908341     0.08700
H3104       H  0.73258909  0.97379826  0.60435870     0.05500
C3105       C  0.76367491  0.72787260  0.77667721    -0.20300
C3106       C  0.77760784  0.71771781  0.80863580    -0.06900
C3107       C  0.76154866  0.70810040  0.83511962     0.14000
C3108       C  0.73236643  0.71032028  0.82941257    -0.20400
C3109       C  0.71895935  0.72304241  0.79843851    -0.06900
C3110       C  0.73482155  0.73098816  0.77146980     0.14000
C3111       C  0.72136186  0.74341518  0.73733548    -0.23700
H3112       H  0.77571436  0.73523068  0.75617466     0.15200
H3113       H  0.72004183  0.70368535  0.84985825     0.15300
C3114       C  0.77510932  0.69752642  0.87007148    -0.23700
H3115       H  0.73652527  0.74733935  0.71846985     0.05500
H3116       H  0.71205607  0.76570924  0.74141733     0.08700
H3117       H  0.70508066  0.72699084  0.72589098     0.08700
H3118       H  0.78887682  0.71612345  0.88214312     0.08700
H3119       H  0.78745131  0.67694793  0.86707489     0.08700
H3120       H  0.75960306  0.69135255  0.88791545     0.05500
C3121       C  0.98255764  0.80651772  0.79552038    -0.20300
C3122       C  0.99823149  0.79347475  0.82464913    -0.06900
C3123       C  0.01943003  0.77360114  0.81981348     0.14000
C3124       C  0.02057156  0.76241556  0.78673194    -0.20400
C3125       C  0.00306445  0.77344211  0.75788604    -0.06900
C3126       C  0.98507135  0.79735326  0.76207782     0.14000
C3127       C  0.96794619  0.81343917  0.73240448    -0.23700
H3128       H  0.96626972  0.82167387  0.79853664     0.15200
H3129       H  0.03619441  0.74610885  0.78345661     0.15300
C3130       C  0.04192649  0.76551340  0.84846074    -0.23700
H3131       H  0.94573921  0.81180838  0.73624650     0.05500
H3132       H  0.97000687  0.80364734  0.70677814     0.08700
H3133       H  0.97432183  0.83809212  0.73185695     0.08700
H3134       H  0.04322330  0.74023267  0.85176659     0.08700
H3135       H  0.03915885  0.77565547  0.87369343     0.08700
H3136       H  0.06181061  0.77516068  0.84147167     0.05500
C3137       C  0.86347157  0.61321761  0.76692298    -0.20300
C3138       C  0.88100821  0.63498986  0.75328515    -0.06900
C3139       C  0.89452634  0.62622255  0.72461002     0.14000
C3140       C  0.89164161  0.59567493  0.71272373    -0.20400
C3141       C  0.87659246  0.57298199  0.72914951    -0.06900
C3142       C  0.86113313  0.58279119  0.75592423     0.14000
C3143       C  0.84297354  0.56231448  0.77607788    -0.23700
H3144       H  0.85206244  0.61950601  0.78789044     0.15200
H3145       H  0.90173489  0.58965011  0.69082966     0.15300
C3146       C  0.91245605  0.64837672  0.70642997    -0.23700
H3147       H  0.82195152  0.57184451  0.77364867     0.05500
H3148       H  0.85138988  0.56228228  0.80399419     0.08700
H3149       H  0.84094007  0.53819533  0.76812399     0.08700
H3150       H  0.93051907  0.65617422  0.72468081     0.08700
H3151       H  0.90019511  0.66834703  0.69609850     0.08700
H3152       H  0.92066350  0.63766188  0.68420587     0.05500
C3153       C  0.90119972  0.89254015  0.73662322    -0.20300
C3154       C  0.87764537  0.87991115  0.74965629    -0.06900
C3155       C  0.85401209  0.89790590  0.74856947     0.14000
C3156       C  0.85528844  0.92828118  0.73631894    -0.20400
C3157       C  0.87919822  0.94175226  0.72418125    -0.06900
C3158       C  0.90337462  0.92376811  0.72815327     0.14000
C3159       C  0.93264586  0.93668499  0.73119566    -0.23700
H3160       H  0.91976536  0.87913431  0.73825843     0.15200
H3161       H  0.83834685  0.94245018  0.74069493     0.15300
C3162       C  0.82810225  0.88644714  0.76286501    -0.23700
H3163       H  0.94456051  0.92768305  0.75535760     0.05500
H3164       H  0.93427114  0.96183194  0.73371672     0.08700
H3165       H  0.94285930  0.92924119  0.70896688     0.08700
H3166       H  0.83280176  0.88085330  0.79093323     0.08700
H3167       H  0.81959272  0.86576232  0.74862231     0.08700
H3168       H  0.81172096  0.90385407  0.76001777     0.05500
C3169       C  0.93581757  0.60918413  0.90968448    -0.20300
C3170       C  0.94568267  0.62841120  0.88468571    -0.06900
C3171       C  0.96805780  0.61831882  0.86786115     0.14000
C3172       C  0.98043339  0.58994229  0.87735032    -0.20400
C3173       C  0.97049765  0.57007646  0.90223223    -0.06900
C3174       C  0.94732508  0.58032993  0.91846255     0.14000
C3175       C  0.93304065  0.56091037  0.94407689    -0.23700
H3176       H  0.91874982  0.61689093  0.92248261     0.15200
H3177       H  0.99630934  0.58230966  0.86271382     0.15300
C3178       C  0.97813895  0.63574130  0.83776150    -0.23700
H3179       H  0.91428126  0.57192650  0.95115759     0.05500
H3180       H  0.94687569  0.55788845  0.96860509     0.08700
H3181       H  0.92599115  0.53833637  0.93319481     0.08700
H3182       H  0.99978508  0.64402546  0.84506669     0.08700
H3183       H  0.96517804  0.65547271  0.82897869     0.08700
H3184       H  0.97748595  0.62032184  0.81521502     0.05500
C3185       C  0.93753775  0.93540902  0.92244639    -0.20300
C3186       C  0.96480231  0.93880571  0.91290064    -0.06900
C3187       C  0.97902626  0.91132492  0.90951990     0.14000
C3188       C  0.96428708  0.88274534  0.90893029    -0.20400
C3189       C  0.93603469  0.88052942  0.91355964    -0.06900
C3190       C  0.92285141  0.90721567  0.92140045     0.14000
C3191       C  0.89277830  0.90617675  0.92704564    -0.23700
H3192       H  0.92669772  0.95564015  0.92840697     0.15200
H3193       H  0.97498269  0.86204055  0.90460990     0.15300
C3194       C  0.00976322  0.91070088  0.90993447    -0.23700
H3195       H  0.88545374  0.92917136  0.93293641     0.05500
H3196       H  0.88974337  0.89042065  0.94913745     0.08700
H3197       H  0.87987693  0.89781053  0.90333682     0.08700
H3198       H  0.01980656  0.93253899  0.91937877     0.08700
H3199       H  0.01493648  0.90509863  0.88377284     0.08700
H3200       H  0.01831503  0.89274250  0.92859115     0.05500
loop_ 
_geom_bond_atom_site_label_1 
_geom_bond_atom_site_label_2 
_geom_bond_distance 
_geom_bond_site_symmetry_2 
_ccdc_geom_bond_type 
C1            C3   1.524       .  S
C1            C5   1.535       .  S
C1            C4   1.582   1_655  S
C1          C773   1.559       .  S
C2            C6   1.531       .  S
C2            C8   1.530       .  S
C2            C7   1.591       .  S
C2          C786   1.565       .  S
C3           C11   1.376       .  A
C3         C1606   1.379   1_545  A
C4           C15   1.403       .  A
C4         C1607   1.428   1_545  A
C5           C19   1.386       .  A
C5         C1608   1.392   1_545  A
C6            C9   1.383       .  A
C6         C1603   1.382       .  A
C7           C13   1.401   1_655  A
C7         C1604   1.427   1_655  A
C8           C16   1.376       .  A
C8         C1605   1.388       .  A
C9           N10   1.354       .  A
C9           H22   1.081       .  S
N10        C1611   1.351       .  A
N10         N106   1.410       .  S
C11        N1610   1.349       .  A
C11          H12   1.080       .  S
C13          N14   1.372       .  A
C13          H23   1.077       .  S
N14        C1615   1.369       .  A
N14         N215   1.440       .  S
C15        N1614   1.369       .  A
C15          H21   1.080       .  S
C16        N1617   1.354       .  A
C16          H18   1.081       .  S
N17          C19   1.358       .  A
N17        C1616   1.354   1_545  A
N17         N929   1.414   1_655  S
C19          H20   1.081       .  S
Zr24         O25   2.435       .  S
Zr24         O26   2.445       .  S
Zr24         O27   2.504       .  S
Zr24         O30   2.511       .  S
Zr24         O32   2.385       .  S
Zr24         O33   2.379       .  S
Zr24         O34   2.426       .  S
Zr24         O35   2.427       .  S
O25          H81   0.990       .  S
O25          H89   0.990       .  S
O26          C46   1.289       .  A
O27          C48   1.299       .  A
O28         Zr38   2.417       .  S
O28          C47   1.281       .  A
O29         Zr37   2.395       .  S
O29          C48   1.278       .  A
O30          C47   1.301       .  A
O31         Zr39   2.432       .  S
O31          C46   1.280       .  A
O32         Zr37   2.402       .  S
O32         Zr39   2.370       .  S
O33         Zr38   2.394       .  S
O33         Zr39   2.351       .  S
O33          H68   0.964       .  S
O34         Zr37   2.411       .  S
O34         Zr54   2.418       .  S
O34          H71   0.965       .  S
O35         Zr38   2.403       .  S
O35         Zr54   2.430       .  S
Zr36         O61   2.468       .  S
Zr36         O55   2.392       .  S
Zr36         O63   2.420       .  S
Zr36         O51   2.397       .  S
Zr36         O42   2.437       .  S
Zr36         O43   2.420       .  S
Zr36         O44   2.372       .  S
Zr36         O45   2.405       .  S
Zr37         O56   2.436       .  S
Zr37         O49   2.437       .  S
Zr37         O50   2.454       .  S
Zr37         O43   2.391       .  S
Zr37         O44   2.384       .  S
Zr38         O40   2.433       .  S
Zr38         O62   2.431       .  S
Zr38         O64   2.436       .  S
Zr38         O42   2.415       .  S
Zr38         O45   2.391       .  S
Zr39         O65   2.436       .  S
Zr39         O66   2.435       .  S
Zr39         O41   2.443       .  S
Zr39         O42   2.410       .  S
Zr39         O43   2.377       .  S
O40          H77   0.990       .  S
O41          H72   0.990       .  S
O41          H86   0.989       .  S
O43          H69   0.963       .  S
O44         Zr54   2.392       .  S
O45         Zr54   2.359       .  S
O45          H70   0.965       .  S
C46         C738   1.508       .  S
C47         C770   1.501       .  S
C48         C706   1.498       .  S
O49          H85   0.990       .  S
O50          C52   1.288       .  A
O51          C52   1.281       .  A
C52         C754   1.482       .  S
O53         Zr54   2.436       .  S
O53          H82   0.990       .  S
Zr54         O57   2.434       .  S
Zr54         O58   2.437       .  S
Zr54         O59   2.488       .  S
O55          C60   1.265       .  A
O56          H73   0.990       .  S
O56          H88   0.990       .  S
O57          H74   0.990       .  S
O58          H78   0.990       .  S
O58          H87   0.990       .  S
O59          C60   1.283       .  A
C60         C789   1.492       .  S
O61          H80   0.991       .  S
O61          H84   0.989       .  S
O62          H76   0.990       .  S
O62          H83   0.988       .  S
O63          C67   1.266       .  A
O64          C67   1.277       .  A
O65          H75   0.990       .  S
O66          H79   0.991       .  S
C67         C722   1.464       .  S
C90          C92   1.553       .  S
C90          C94   1.526       .  S
C90          C93   1.580       .  S
C90         C741   1.548       .  S
C91          C95   1.541       .  S
C91          C97   1.529       .  S
C91          C96   1.550       .  S
C91         C757   1.542       .  S
C92         C100   1.389       .  A
C92        C1695   1.393   1_545  A
C93         C104   1.403       .  A
C93        C1696   1.413   1_545  A
C94         C108   1.374       .  A
C94        C1697   1.375   1_545  A
C95          C98   1.382       .  A
C95        C1692   1.391       .  A
C96         C102   1.375       .  A
C96        C1693   1.415       .  A
C97         C105   1.381       .  A
C97        C1694   1.375       .  A
C98          N99   1.351       .  A
C98         H111   1.082       .  S
N99        C1700   1.363       .  A
N99         C693   1.444       .  S
C100       N1699   1.362       .  A
C100        H101   1.082       .  S
C102        N103   1.357       .  A
C102        H112   1.078       .  S
N103       C1704   1.371       .  A
N103        N126   1.426       .  S
C104       N1703   1.370       .  A
C104        H110   1.078       .  S
C105        N106   1.355       .  A
C105        H107   1.081       .  S
N106       C1708   1.356       .  A
C108       N1706   1.355       .  A
C108        H109   1.081       .  S
C113        C115   1.534       .  S
C113        C117   1.535       .  S
C113        C116   1.562   1_455  S
C113        C677   1.536       .  S
C114        C118   1.532       .  S
C114        C120   1.545       .  S
C114        C119   1.561   1_455  S
C114        C658   1.549       .  S
C115        C123   1.377       .  A
C115       C1718   1.379   1_545  A
C116        C127   1.393       .  A
C116       C1719   1.409   1_545  A
C117        C131   1.386       .  A
C117       C1720   1.399   1_545  A
C118        C121   1.385       .  A
C118       C1715   1.374       .  A
C119        C125   1.382       .  A
C119       C1716   1.411       .  A
C120        C128   1.384       .  A
C120       C1717   1.402       .  A
C121       N1722   1.357       .  A
C121        H134   1.080       .  S
N122        C123   1.354   1_565  A
N122       C1721   1.359       .  A
N122       N1811   1.415       .  S
C123        H124   1.081       .  S
C125        N126   1.365       .  A
C125        H135   1.080       .  S
N126       C1727   1.364       .  A
C127       N1726   1.363       .  A
C127        H133   1.078       .  S
C128       N1729   1.353       .  A
C128        H130   1.081       .  S
N129        C131   1.355       .  A
N129       C1728   1.350   1_545  A
N129        N817   1.412   1_454  S
C131        H132   1.081       .  S
Zr136       O137   2.436       .  S
Zr136       O138   2.508       .  S
Zr136       O139   2.500       .  S
Zr136       O142   2.458       .  S
Zr136       O144   2.381       .  S
Zr136       O145   2.383       .  S
Zr136       O146   2.429       .  S
Zr136       O147   2.424       .  S
O137        H193   0.990       .  S
O137        H201   0.990       .  S
O138        C158   1.300       .  A
O139        C160   1.297       .  A
O140       Zr150   2.381       .  S
O140        C159   1.275       .  A
O141       Zr149   2.394       .  S
O141        C160   1.279       .  A
O142        C159   1.290       .  A
O143       Zr151   2.365       .  S
O143        C158   1.267       .  A
O144       Zr149   2.402       .  S
O144       Zr151   2.370       .  S
O145       Zr150   2.397       .  S
O145       Zr151   2.384       .  S
O145        H180   0.966       .  S
O146       Zr149   2.398       .  S
O146       Zr166   2.414       .  S
O146        H183   0.965       .  S
O147       Zr150   2.396       .  S
O147       Zr166   2.412       .  S
Zr148       O173   2.443       .  S
Zr148       O167   2.384       .  S
Zr148       O175   2.406       .  S
Zr148       O163   2.391       .  S
Zr148       O154   2.384       .  S
Zr148       O155   2.400       .  S
Zr148       O156   2.378       .  S
Zr148       O157   2.386       .  S
Zr149       O168   2.435       .  S
Zr149       O161   2.435       .  S
Zr149       O162   2.427       .  S
Zr149       O155   2.385       .  S
Zr149       O156   2.382       .  S
Zr150       O152   2.437       .  S
Zr150       O174   2.441       .  S
Zr150       O176   2.411       .  S
Zr150       O154   2.392       .  S
Zr150       O157   2.389       .  S
Zr151       O177   2.435       .  S
Zr151       O178   2.426       .  S
Zr151       O153   2.440       .  S
Zr151       O154   2.370       .  S
Zr151       O155   2.365       .  S
O152        H189   0.990   1_455  S
O153        H184   0.990       .  S
O153        H198   0.990       .  S
O155        H181   0.965       .  S
O156       Zr166   2.375       .  S
O157       Zr166   2.362       .  S
O157        H182   0.966       .  S
C158        C645   1.505       .  S
C159        C674   1.492       .  S
C160        C610   1.499       .  S
O161        H197   0.990       .  S
O162        C164   1.284       .  A
O163        C164   1.275       .  A
C164        C629   1.451       .  S
O165       Zr166   2.434       .  S
O165        H194   0.990       .  S
Zr166       O169   2.435       .  S
Zr166       O170   2.436       .  S
Zr166       O171   2.475       .  S
O167        C172   1.277       .  A
O168        H185   0.990       .  S
O168        H200   0.990       .  S
O169        H186   0.990       .  S
O170        H190   0.990       .  S
O170        H199   0.990       .  S
O171        C172   1.291       .  A
C172        C661   1.499       .  S
O173        H192   0.991       .  S
O173        H196   0.990       .  S
O174        H188   0.990       .  S
O174        H195   0.990       .  S
O175        C179   1.266       .  A
O176        C179   1.274       .  A
O177        H187   0.990       .  S
O178        H191   0.990       .  S
C179        C725   1.451       .  S
C202        C204   1.535       .  S
C202        C206   1.530       .  S
C202        C205   1.566       .  S
C202        C626   1.524       .  S
C203        C207   1.527       .  S
C203        C209   1.550       .  S
C203        C208   1.596       .  S
C203        C642   1.537       .  S
C204        C212   1.383       .  A
C204       C1807   1.367       .  A
C205        C216   1.397       .  A
C205       C1808   1.430       .  A
C206        C220   1.383       .  A
C206       C1809   1.372       .  A
C207        C210   1.378       .  A
C207       C1804   1.368   1_545  A
C208        C214   1.414       .  A
C208       C1805   1.430   1_545  A
C209        C217   1.399       .  A
C209       C1806   1.372   1_545  A
C210       N1811   1.356   1_545  A
C210        H223   1.080       .  S
N211        C212   1.356       .  A
N211       C1810   1.355       .  A
N211       N1722   1.411       .  S
C212        H213   1.081       .  S
C214       N1815   1.371       .  A
C214        H224   1.081       .  S
N215        C216   1.362       .  A
N215       C1814   1.371       .  A
C216        H222   1.078       .  S
C217       N1818   1.367   1_545  A
C217        H219   1.082       .  S
N218        C220   1.349       .  A
N218       C1817   1.365       .  A
N218        C594   1.447       .  S
C220        H221   1.083       .  S
C225        C227   1.531       .  S
C225        C229   1.531       .  S
C225        C228   1.573       .  S
C225        C562   1.526       .  S
C226        C230   1.529       .  S
C226        C232   1.540       .  S
C226        C231   1.587       .  S
C226        C578   1.538       .  S
C227        C235   1.385       .  A
C227        C230   1.372       .  A
C228        C239   1.400       .  A
C228        C231   1.414       .  A
C229        C243   1.386       .  A
C229        C232   1.389       .  A
C230        C233   1.388       .  A
C231        C237   1.405       .  A
C232        C240   1.386       .  A
C233        N234   1.357       .  A
C233        H246   1.082       .  S
N234        C235   1.352       .  A
N234        N323   1.415       .  S
C235        H236   1.079       .  S
C237        N238   1.374       .  A
C237        H247   1.078       .  S
N238        C239   1.367       .  A
N238        N439   1.440       .  S
C239        H245   1.081       .  S
C240        N241   1.359   1_554  A
C240        H242   1.081       .  S
N241        C243   1.355   1_556  A
N241       N1153   1.418       .  S
C243        H244   1.082       .  S
Zr248       O249   2.435       .  S
Zr248       O250   2.472       .  S
Zr248       O251   2.464       .  S
Zr248       O254   2.485       .  S
Zr248       O256   2.388       .  S
Zr248       O257   2.367       .  S
Zr248       O259   2.426       .  S
Zr248      O1858   2.433       .  S
O249        H305   0.990       .  S
O249        H313   0.990       .  S
O250        C270   1.294       .  A
O251        C272   1.291       .  A
O252       Zr262   2.354       .  S
O252        C271   1.269       .  A
O253       Zr261   2.433       .  S
O253       C1872   1.286   1_545  A
O254        C271   1.294       .  A
O255       Zr263   2.403       .  S
O255        C270   1.277       .  A
O256       Zr263   2.389       .  S
O256      Zr1861   2.393       .  S
O257       Zr262   2.382       .  S
O257       Zr263   2.353       .  S
O257        H292   0.962       .  S
O258       Zr261   2.398       .  S
O258       Zr278   2.399       .  S
O258      Zr1848   2.429   1_545  S
O258        H295   0.964       .  S
O259       Zr262   2.380       .  S
O259      Zr1878   2.434       .  S
Zr260       O285   2.430       .  S
Zr260       O279   2.361       .  S
Zr260       O287   2.456       .  S
Zr260       O275   2.412       .  S
Zr260       O266   2.369   1_545  S
Zr260       O267   2.387       .  S
Zr260       O268   2.377       .  S
Zr260       O269   2.365       .  S
Zr261       O280   2.437       .  S
Zr261       O273   2.435       .  S
Zr261       O274   2.446       .  S
Zr261       O267   2.391       .  S
Zr261       O268   2.385       .  S
Zr261      O1856   2.397   1_545  S
Zr262       O264   2.436       .  S
Zr262       O286   2.436       .  S
Zr262       O288   2.372       .  S
Zr262      O1866   2.395       .  S
Zr262      O1869   2.365       .  S
Zr263       O289   2.436       .  S
Zr263       O290   2.439       .  S
Zr263       O265   2.437       .  S
Zr263      O1866   2.400       .  S
Zr263      O1867   2.362       .  S
O264        H301   0.990       .  S
O265        H296   0.990       .  S
O265        H310   0.990       .  S
O266      Zr1862   2.397       .  S
O266      Zr1863   2.400       .  S
O267      Zr1863   2.365   1_545  S
O267        H293   0.964       .  S
O268       Zr278   2.367       .  S
O269       Zr278   2.337       .  S
O269      Zr1862   2.365   1_545  S
O269        H294   0.964       .  S
C270        C530   1.501       .  S
C271        C565   1.458       .  S
C272       O1853   1.288       .  A
C272        C690   1.494       .  S
O273        H309   0.990       .  S
O274        C276   1.289       .  A
O275        C276   1.281       .  A
C276        C546   1.492       .  S
O277       Zr278   2.437       .  S
O277        H306   0.990       .  S
Zr278       O281   2.436       .  S
Zr278       O282   2.439       .  S
Zr278       O283   2.496       .  S
Zr278      O1859   2.431   1_545  S
O279        C284   1.270       .  A
O280        H297   0.990       .  S
O280        H312   0.990       .  S
O281        H298   0.990       .  S
O282        H302   0.990       .  S
O282        H311   0.990       .  S
O283        C284   1.297       .  A
C284        C581   1.491       .  S
O285        H304   0.988       .  S
O285        H308   0.989       .  S
O286        H300   0.990       .  S
O286        H307   0.989       .  S
O287        C291   1.296       .  A
O288       C1891   1.271       .  A
O289        H299   0.990       .  S
O290       H1903   0.990       .  S
C291       O1888   1.275   1_545  A
C291        C514   1.476       .  S
H303       O1890   0.990       .  S
C314        C316   1.545       .  S
C314        C318   1.546       .  S
C314        C317   1.545       .  S
C314        C549   1.539       .  S
C315        C319   1.537       .  S
C315        C321   1.555       .  S
C315        C320   1.568       .  S
C315        C533   1.548       .  S
C316        C324   1.386       .  A
C316        C319   1.382       .  A
C317        C328   1.381       .  A
C317        C320   1.402       .  A
C318        C332   1.387       .  A
C318        C321   1.400       .  A
C319        C322   1.381       .  A
C320        C326   1.403       .  A
C321        C329   1.389       .  A
C322        N323   1.358       .  A
C322        H335   1.080       .  S
N323        C324   1.355       .  A
C324        H325   1.080       .  S
C326        N327   1.367       .  A
C326        H336   1.080       .  S
N327        C328   1.359       .  A
N327        N350   1.427       .  S
C328        H334   1.081       .  S
C329        N330   1.362       .  A
C329        H331   1.082       .  S
N330        C332   1.355       .  A
N330        C709   1.449       .  S
C332        H333   1.078       .  S
C337        C339   1.539       .  S
C337        C341   1.548       .  S
C337        C340   1.578       .  S
C337        C482   1.550       .  S
C338        C342   1.536       .  S
C338        C344   1.532       .  S
C338        C343   1.552       .  S
C338        C501   1.541       .  S
C339        C347   1.390       .  A
C339        C342   1.389       .  A
C340        C351   1.402       .  A
C340        C343   1.409       .  A
C341        C355   1.389       .  A
C341        C344   1.394       .  A
C342        C345   1.382       .  A
C343        C349   1.382       .  A
C344        C352   1.381       .  A
C345        N346   1.352       .  A
C345        H358   1.080       .  S
N346        C347   1.351       .  A
N346        N435   1.413       .  S
C347        H348   1.081       .  S
C349        N350   1.360       .  A
C349        H359   1.078       .  S
N350        C351   1.365       .  A
C351        H357   1.078       .  S
C352        N353   1.357       .  A
C352        H354   1.081       .  S
N353        C355   1.363       .  A
N353       N1041   1.420       .  S
C355        H356   1.081       .  S
Zr360       O361   2.437       .  S
Zr360       O362   2.468       .  S
Zr360       O363   2.501       .  S
Zr360       O366   2.488       .  S
Zr360       O368   2.402       .  S
Zr360       O369   2.393       .  S
Zr360       O371   2.422       .  S
Zr360      O1970   2.426       .  S
O361        H417   0.990       .  S
O361        H425   0.990       .  S
O362        C382   1.291       .  A
O363        C384   1.298       .  A
O364       Zr374   2.398       .  S
O364        C383   1.275       .  A
O365       Zr373   2.402       .  S
O365       C1984   1.280   1_545  A
O366        C383   1.297       .  A
O367       Zr375   2.405       .  S
O367        C382   1.276       .  A
O368       Zr375   2.337       .  S
O368      Zr1973   2.418       .  S
O369       Zr374   2.369       .  S
O369       Zr375   2.390       .  S
O369        H404   0.966       .  S
O370       Zr373   2.424       .  S
O370       Zr390   2.413       .  S
O370      Zr1960   2.425   1_545  S
O370        H407   0.967       .  S
O371       Zr374   2.390       .  S
O371      Zr1990   2.407       .  S
Zr372       O397   2.434       .  S
Zr372       O391   2.435       .  S
Zr372       O399   2.387       .  S
Zr372       O387   2.381       .  S
Zr372       O379   2.426       .  S
Zr372       O380   2.354       .  S
Zr372       O381   2.370       .  S
Zr372       O378   2.255       .  S
Zr373       O392   2.432       .  S
Zr373       O385   2.438       .  S
Zr373       O386   2.478       .  S
Zr373       O379   2.393       .  S
Zr373       O380   2.392       .  S
Zr373      O1968   2.420   1_545  S
Zr374       O376   2.434       .  S
Zr374       O398   2.434       .  S
Zr374       O400   2.430       .  S
Zr374      O1981   2.393       .  S
Zr374      O1978   2.213       .  S
Zr375       O401   2.421       .  S
Zr375       O402   2.435       .  S
Zr375       O377   2.438       .  S
Zr375      O1979   2.378       .  S
Zr375      O1978   2.296       .  S
O376        H413   0.990       .  S
O377        H408   0.990       .  S
O377        H422   0.990       .  S
O378      Zr1974   2.217   1_545  S
O378      Zr1975   2.290   1_545  S
O379      Zr1975   2.385   1_545  S
O379        H405   0.964       .  S
O380       Zr390   2.397       .  S
O381       Zr390   2.398       .  S
O381      Zr1974   2.395   1_545  S
O381        H406   0.966       .  S
C382        C450   1.492       .  S
C383        C485   1.506       .  S
C384       O1965   1.277       .  A
C384        C597   1.481       .  S
O385        H421   0.990       .  S
O386        C388   1.292       .  A
O387        C388   1.274       .  A
C388        C469   1.465       .  S
O389       Zr390   2.432   1_565  S
O389        H418   0.990       .  S
Zr390       O393   2.433       .  S
Zr390       O394   2.440       .  S
Zr390       O395   2.420       .  S
Zr390      O1971   2.404   1_545  S
O391        C396   1.282       .  A
O392        H409   0.990       .  S
O392        H424   0.990       .  S
O393        H410   0.990       .  S
O394        H414   0.990       .  S
O394        H423   0.990   1_545  S
O395        C396   1.278       .  A
C396        C498   1.470       .  S
O397        H416   0.990       .  S
O397        H420   0.991       .  S
O398        H412   0.989       .  S
O398        H419   0.990       .  S
O399        C403   1.270       .  A
O400       C2003   1.281       .  A
O401        H411   0.990       .  S
O402       H2015   0.989       .  S
C403       O2000   1.281   1_545  A
C403        C517   1.481       .  S
H415       O2002   0.989   1_565  S
C426        C428   1.520       .  S
C426        C430   1.518       .  S
C426        C429   1.569       .  S
C426        C466   1.523       .  S
C427        C431   1.541       .  S
C427        C433   1.550       .  S
C427        C432   1.601       .  S
C427        C453   1.550       .  S
C428        C436   1.373       .  A
C428        C431   1.368       .  A
C429        C440   1.395       .  A
C429        C432   1.438       .  A
C430        C444   1.383       .  A
C430        C433   1.366       .  A
C431        C434   1.390       .  A
C432        C438   1.413       .  A
C433        C441   1.395       .  A
C434        N435   1.361       .  A
C434        H447   1.082       .  S
N435        C436   1.352       .  A
C436        H437   1.080       .  S
C438        N439   1.374       .  A
C438        H448   1.080       .  S
N439        C440   1.362       .  A
C440        H446   1.080       .  S
C441        N442   1.363       .  A
C441        H443   1.082       .  S
N442        C444   1.351       .  A
N442        C613   1.448       .  S
C444        H445   1.083       .  S
C449        C450   1.418       .  A
C449        C454   1.416       .  A
C449        H456   1.083       .  S
C450        C451   1.404       .  A
C451        C458   1.510       .  S
C451        C452   1.395       .  A
C452        C453   1.424       .  A
C452        H457   1.084       .  S
C453        C454   1.413       .  A
C454        C455   1.501       .  S
C455        H459   1.111       .  S
C455        H460   1.104       .  S
C455        H461   1.110       .  S
C458        H462   1.111       .  S
C458        H463   1.109       .  S
C458        H464   1.111       .  S
C465        C466   1.396       .  A
C465        C470   1.402       .  A
C465        H472   1.081       .  S
C466        C467   1.446       .  A
C467        C474   1.520       .  S
C467        C468   1.391       .  A
C468        C469   1.383       .  A
C468        H473   1.086       .  S
C469        C470   1.416       .  A
C470        C471   1.499       .  S
C471        H475   1.110       .  S
C471        H476   1.109       .  S
C471        H477   1.105       .  S
C474        H478   1.111       .  S
C474        H479   1.101       .  S
C474        H480   1.111       .  S
C481        C482   1.401       .  A
C481        C486   1.405       .  A
C481        H488   1.068       .  S
C482        C483   1.436       .  A
C483        C490   1.511       .  S
C483        C484   1.412       .  A
C484        C485   1.400       .  A
C484        H489   1.084       .  S
C485        C486   1.427       .  A
C486        C487   1.510       .  S
C487        H491   1.111       .  S
C487        H492   1.110       .  S
C487        H493   1.109       .  S
C490        H494   1.106       .  S
C490        H495   1.108       .  S
C490        H496   1.111       .  S
C497        C498   1.404       .  A
C497        C502   1.412       .  A
C497        H504   1.084       .  S
C498        C499   1.405       .  A
C499        C506   1.509       .  S
C499        C500   1.394       .  A
C500        C501   1.412       .  A
C500        H505   1.083       .  S
C501        C502   1.421       .  A
C502        C503   1.506       .  S
C503        H507   1.111       .  S
C503        H508   1.107       .  S
C503        H509   1.110       .  S
C506        H510   1.110       .  S
C506        H511   1.110       .  S
C506        H512   1.111       .  S
C513        C514   1.392       .  A
C513        C518   1.406       .  A
C513        H520   1.081       .  S
C514        C515   1.397   1_545  A
C515        C522   1.500       .  S
C515        C516   1.399       .  A
C516        C517   1.415   1_565  A
C516        H521   1.078       .  S
C517        C518   1.434       .  A
C518        C519   1.502       .  S
C519        H523   1.105       .  S
C519        H524   1.108       .  S
C519        H525   1.108       .  S
C522        H526   1.106       .  S
C522        H528   1.110       .  S
C522       H2127   1.111       .  S
H527       C2122   1.108       .  S
C529        C530   1.399       .  A
C529        C534   1.404       .  A
C529        H536   1.084       .  S
C530        C531   1.425       .  A
C531        C538   1.509       .  S
C531        C532   1.410       .  A
C532        C533   1.403       .  A
C532        H537   1.078       .  S
C533        C534   1.432       .  A
C534        C535   1.509       .  S
C535        H539   1.110       .  S
C535        H540   1.110       .  S
C535        H541   1.102       .  S
C538        H542   1.108       .  S
C538        H543   1.110       .  S
C538        H544   1.111       .  S
C545        C546   1.410       .  A
C545        C550   1.407       .  A
C545        H552   1.084       .  S
C546        C547   1.423       .  A
C547        C554   1.512       .  S
C547        C548   1.399       .  A
C548        C549   1.404       .  A
C548        H553   1.084       .  S
C549        C550   1.414       .  A
C550        C551   1.505       .  S
C551        H555   1.109       .  S
C551        H556   1.111       .  S
C551        H557   1.108       .  S
C554        H558   1.110       .  S
C554        H559   1.110       .  S
C554        H560   1.111       .  S
C561        C562   1.404       .  A
C561        C566   1.396       .  A
C561        H568   1.079       .  S
C562        C563   1.443       .  A
C563        C570   1.513       .  S
C563        C564   1.402       .  A
C564        C565   1.386       .  A
C564        H569   1.085       .  S
C565        C566   1.411       .  A
C566        C567   1.508       .  S
C567        H571   1.111       .  S
C567        H572   1.103       .  S
C567        H573   1.111       .  S
C570        H574   1.109       .  S
C570        H575   1.104       .  S
C570        H576   1.111       .  S
C577        C578   1.393       .  A
C577        C582   1.403       .  A
C577        H584   1.075       .  S
C578        C579   1.443       .  A
C579        C586   1.517       .  S
C579        C580   1.406       .  A
C580        C581   1.392       .  A
C580        H585   1.084       .  S
C581        C582   1.425       .  A
C582        C583   1.504       .  S
C583        H587   1.110       .  S
C583        H588   1.109       .  S
C583        H589   1.108       .  S
C586        H590   1.106       .  S
C586        H591   1.107       .  S
C586        H592   1.111       .  S
C593        C594   1.405       .  A
C593        C598   1.414       .  A
C593        H600   1.083       .  S
C594       C2195   1.414       .  A
C595        C602   1.502       .  S
C595        C596   1.407       .  A
C595       C2194   1.412       .  A
C596       C2197   1.405       .  A
C596        H601   1.084       .  S
C597        C598   1.415       .  A
C597       C2196   1.404       .  A
C598        C599   1.506       .  S
C599        H603   1.111       .  S
C599        H604   1.111       .  S
C599        H605   1.110       .  S
C602        H606   1.105   1_565  S
C602        H607   1.110       .  S
C602        H608   1.111       .  S
C609        C610   1.410       .  A
C609        C614   1.404       .  A
C609        H616   1.084       .  S
C610        C611   1.416       .  A
C611        C618   1.504       .  S
C611        C612   1.416       .  A
C612        C613   1.409       .  A
C612        H617   1.083       .  S
C613        C614   1.412       .  A
C614        C615   1.507       .  S
C615        H619   1.111       .  S
C615        H620   1.108       .  S
C615        H621   1.110       .  S
C618        H622   1.110       .  S
C618        H623   1.109       .  S
C618        H624   1.111       .  S
C625        C626   1.420       .  A
C625        C630   1.380       .  A
C625        H632   1.084       .  S
C626        C627   1.409       .  A
C627        C634   1.501       .  S
C627        C628   1.405       .  A
C628        C629   1.408       .  A
C628        H633   1.084       .  S
C629        C630   1.397       .  A
C630        C631   1.512       .  S
C631        H635   1.111       .  S
C631        H636   1.110       .  S
C631        H637   1.110       .  S
C634        H638   1.110       .  S
C634        H639   1.105       .  S
C634        H640   1.111       .  S
C641        C642   1.393       .  A
C641        C646   1.408       .  A
C641        H648   1.081       .  S
C642        C643   1.439       .  A
C643        C650   1.513       .  S
C643        C644   1.402       .  A
C644        C645   1.395       .  A
C644        H649   1.085       .  S
C645        C646   1.436       .  A
C646        C647   1.509       .  S
C647        H651   1.111       .  S
C647        H652   1.107       .  S
C647        H653   1.111       .  S
C650        H654   1.111       .  S
C650        H655   1.101       .  S
C650        H656   1.110       .  S
C657        C658   1.421       .  A
C657        C662   1.407       .  A
C657        H664   1.076       .  S
C658        C659   1.425       .  A
C659        C666   1.510       .  S
C659        C660   1.403       .  A
C660        C661   1.409       .  A
C660        H665   1.085       .  S
C661        C662   1.409       .  A
C662        C663   1.508       .  S
C663        H667   1.111       .  S
C663        H668   1.110       .  S
C663        H669   1.110       .  S
C666        H670   1.106   1_455  S
C666        H671   1.100       .  S
C666        H672   1.112       .  S
C673        C674   1.416       .  A
C673        C678   1.404       .  A
C673        H680   1.084       .  S
C674        C675   1.412       .  A
C675        C682   1.508       .  S
C675        C676   1.400       .  A
C676        C677   1.416       .  A
C676        H681   1.084       .  S
C677        C678   1.410       .  A
C678        C679   1.504   1_455  S
C679        H683   1.111       .  S
C679        H684   1.109       .  S
C679        H685   1.106       .  S
C682        H686   1.110       .  S
C682        H687   1.110       .  S
C682        H688   1.111       .  S
C689        C694   1.403   1_565  A
C689       C2290   1.405       .  A
C689        H696   1.084       .  S
C690        C691   1.420       .  A
C690       C2289   1.405       .  A
C691        C698   1.506       .  S
C691        C692   1.412       .  A
C692        C693   1.403       .  A
C692        H697   1.084       .  S
C693       C2294   1.412       .  A
C694        C695   1.502       .  S
C694       C2293   1.411       .  A
C695        H699   1.111       .  S
C695        H700   1.106       .  S
C695        H701   1.111       .  S
C698        H702   1.110       .  S
C698        H703   1.108       .  S
C698        H704   1.111       .  S
C705        C706   1.410       .  A
C705        C710   1.406       .  A
C705        H712   1.084       .  S
C706        C707   1.415       .  A
C707        C714   1.504       .  S
C707        C708   1.417       .  A
C708        C709   1.408       .  A
C708        H713   1.083       .  S
C709        C710   1.410       .  A
C710        C711   1.503       .  S
C711        H715   1.111       .  S
C711        H716   1.106       .  S
C711        H717   1.111       .  S
C714        H718   1.110       .  S
C714        H719   1.110       .  S
C714        H720   1.111       .  S
C721        C722   1.405       .  A
C721        C726   1.387       .  A
C721        H728   1.067       .  S
C722        C723   1.401   1_655  A
C723        C730   1.509       .  S
C723        C724   1.393       .  A
C724        C725   1.408       .  A
C724        H729   1.079       .  S
C725        C726   1.406   1_455  A
C726        C727   1.511       .  S
C727        H731   1.111       .  S
C727        H732   1.107       .  S
C727        H733   1.111       .  S
C730        H734   1.109       .  S
C730        H735   1.106       .  S
C730        H736   1.103       .  S
C737        C738   1.399       .  A
C737        C742   1.398       .  A
C737        H744   1.084       .  S
C738        C739   1.426       .  A
C739        C746   1.508       .  S
C739        C740   1.417       .  A
C740        C741   1.406       .  A
C740        H745   1.075       .  S
C741        C742   1.434       .  A
C742        C743   1.514       .  S
C743        H747   1.109       .  S
C743        H748   1.111       .  S
C743        H749   1.099       .  S
C746        H750   1.110       .  S
C746        H751   1.110       .  S
C746        H752   1.111       .  S
C753        C754   1.404       .  A
C753        C758   1.401       .  A
C753        H760   1.085       .  S
C754        C755   1.406       .  A
C755        C762   1.511       .  S
C755        C756   1.398       .  A
C756        C757   1.418       .  A
C756        H761   1.074       .  S
C757        C758   1.428       .  A
C758        C759   1.509       .  S
C759        H763   1.112       .  S
C759        H764   1.101       .  S
C759        H765   1.106       .  S
C762        H766   1.110       .  S
C762        H767   1.110       .  S
C762        H768   1.111       .  S
C769        C770   1.392       .  A
C769        C774   1.413       .  A
C769        H776   1.084       .  S
C770        C771   1.423       .  A
C771        C778   1.506       .  S
C771        C772   1.415       .  A
C772        C773   1.406       .  A
C772        H777   1.079       .  S
C773        C774   1.446       .  A
C774        C775   1.514       .  S
C775        H779   1.111       .  S
C775        H780   1.106       .  S
C775        H781   1.108       .  S
C778        H782   1.110       .  S
C778        H783   1.105       .  S
C778        H784   1.111       .  S
C785        C786   1.425       .  A
C785        C790   1.403       .  A
C785        H792   1.084       .  S
C786        C787   1.418       .  A
C787        C794   1.498   1_655  S
C787        C788   1.421       .  A
C788        C789   1.412       .  A
C788        H793   1.081       .  S
C789        C790   1.402       .  A
C790        C791   1.508       .  S
C791        H795   1.111       .  S
C791        H796   1.110       .  S
C791        H797   1.110       .  S
C794        H798   1.105       .  S
C794        H799   1.110       .  S
C794        H800   1.111       .  S
C801        C803   1.526       .  S
C801        C805   1.528       .  S
C801        C804   1.579   1_655  S
C801       C1573   1.550       .  S
C802        C806   1.530       .  S
C802        C808   1.531       .  S
C802        C807   1.583   1_655  S
C802       C1586   1.560       .  S
C803        C811   1.377       .  A
C803       C2406   1.379   1_545  A
C804        C815   1.401       .  A
C804       C2407   1.426   1_545  A
C805        C819   1.382       .  A
C805       C2408   1.389   1_545  A
C806       C2403   1.379       .  A
C806        C809   1.384       .  A
C807       C2404   1.426       .  A
C807        C813   1.394       .  A
C808       C2405   1.388       .  A
C808        C816   1.375       .  A
C809        N810   1.354       .  A
C809        H822   1.082       .  S
N810       C2411   1.351       .  A
N810        N906   1.409       .  S
C811       N2410   1.352       .  A
C811        H812   1.081       .  S
C813        N814   1.368       .  A
C813        H823   1.075       .  S
N814       C2415   1.368       .  A
N814       N1015   1.435       .  S
C815       N2414   1.367       .  A
C815        H821   1.080       .  S
C816       N2417   1.354       .  A
C816        H818   1.081       .  S
N817       C2416   1.356   1_545  A
N817        C819   1.355       .  A
C819        H820   1.082       .  S
Zr824       O825   2.437       .  S
Zr824       O826   2.439       .  S
Zr824       O827   2.505       .  S
Zr824       O830   2.502       .  S
Zr824       O832   2.387       .  S
Zr824       O833   2.383       .  S
Zr824       O834   2.419       .  S
Zr824       O835   2.425       .  S
O825        H881   0.990       .  S
O825        H889   0.990       .  S
O826        C846   1.288       .  A
O827        C848   1.298       .  A
O828       Zr838   2.411       .  S
O828        C847   1.280       .  A
O829       Zr837   2.390       .  S
O829        C848   1.277       .  A
O830        C847   1.300       .  A
O831       Zr839   2.428       .  S
O831        C846   1.280       .  A
O832       Zr837   2.400       .  S
O832       Zr839   2.372       .  S
O833       Zr838   2.397       .  S
O833       Zr839   2.344       .  S
O833        H868   0.963       .  S
O834       Zr837   2.408       .  S
O834       Zr854   2.411       .  S
O834        H871   0.966       .  S
O835       Zr838   2.409       .  S
O835       Zr854   2.423       .  S
Zr836       O861   2.467       .  S
Zr836       O855   2.393       .  S
Zr836       O863   2.417       .  S
Zr836       O851   2.396       .  S
Zr836       O842   2.432       .  S
Zr836       O843   2.420       .  S
Zr836       O844   2.371       .  S
Zr836       O845   2.404       .  S
Zr837       O856   2.438       .  S
Zr837       O849   2.436       .  S
Zr837       O850   2.442       .  S
Zr837       O843   2.388       .  S
Zr837       O844   2.384       .  S
Zr838       O840   2.434       .  S
Zr838       O862   2.431       .  S
Zr838       O864   2.441       .  S
Zr838       O842   2.410       .  S
Zr838       O845   2.388       .  S
Zr839       O865   2.436       .  S
Zr839       O866   2.435       .  S
Zr839       O841   2.440       .  S
Zr839       O842   2.404       .  S
Zr839       O843   2.375       .  S
O840        H877   0.990       .  S
O841        H872   0.990       .  S
O841        H886   0.989       .  S
O843        H869   0.963       .  S
O844       Zr854   2.396       .  S
O845       Zr854   2.364       .  S
O845        H870   0.965       .  S
C846       C1538   1.505       .  S
C847       C1570   1.491       .  S
C848       C1506   1.498       .  S
O849        H885   0.990       .  S
O850        C852   1.285       .  A
O851        C852   1.281       .  A
C852       C1554   1.478       .  S
O853       Zr854   2.435       .  S
O853        H882   0.990       .  S
Zr854       O857   2.436       .  S
Zr854       O858   2.437       .  S
Zr854       O859   2.472       .  S
O855        C860   1.266       .  A
O856        H873   0.990       .  S
O856        H888   0.990       .  S
O857        H874   0.990       .  S
O858        H878   0.990       .  S
O858        H887   0.990       .  S
O859        C860   1.280       .  A
C860       C1589   1.485       .  S
O861        H880   0.991       .  S
O861        H884   0.989       .  S
O862        H876   0.990   1_655  S
O862        H883   0.987       .  S
O863        C867   1.265       .  A
O864        C867   1.278       .  A
O865        H875   0.990       .  S
O866        H879   0.991       .  S
C867       C1522   1.466   1_655  S
C890        C892   1.554       .  S
C890        C894   1.524       .  S
C890        C893   1.583       .  S
C890       C1541   1.549       .  S
C891        C895   1.544       .  S
C891        C897   1.528       .  S
C891        C896   1.543       .  S
C891       C1557   1.530       .  S
C892        C900   1.391       .  A
C892       C2495   1.392   1_545  A
C893        C904   1.404       .  A
C893       C2496   1.413   1_545  A
C894        C908   1.374       .  A
C894       C2497   1.375   1_545  A
C895       C2492   1.394       .  A
C895        C898   1.382       .  A
C896       C2493   1.408       .  A
C896        C902   1.374       .  A
C897       C2494   1.372       .  A
C897        C905   1.383       .  A
C898        N899   1.352       .  A
C898        H911   1.081       .  S
N899       C2500   1.362       .  A
N899       C1493   1.443       .  S
C900       N2499   1.364       .  A
C900        H901   1.082       .  S
C902        N903   1.355       .  A
C902        H912   1.079       .  S
N903       C2504   1.372       .  A
N903        N926   1.427       .  S
C904       N2503   1.370       .  A
C904        H910   1.077       .  S
C905        N906   1.355       .  A
C905        H907   1.081       .  S
N906       C2508   1.355       .  A
C908       N2506   1.354       .  A
C908        H909   1.081       .  S
C913        C915   1.532       .  S
C913        C917   1.533       .  S
C913        C916   1.560   1_455  S
C913       C1477   1.534       .  S
C914        C918   1.537       .  S
C914        C920   1.546       .  S
C914        C919   1.565   1_455  S
C914       C1458   1.554       .  S
C915        C923   1.379       .  A
C915       C2518   1.378   1_545  A
C916        C927   1.392       .  A
C916       C2519   1.409   1_545  A
C917        C931   1.384       .  A
C917       C2520   1.400   1_545  A
C918       C2515   1.379       .  A
C918        C921   1.389       .  A
C919       C2516   1.411       .  A
C919        C925   1.384       .  A
C920       C2517   1.401       .  A
C920        C928   1.384       .  A
C921       N2522   1.359       .  A
C921        H934   1.081       .  S
N922       C2521   1.360       .  A
N922        C923   1.354   1_565  A
N922       N2611   1.416       .  S
C923        H924   1.081       .  S
C925        N926   1.366       .  A
C925        H935   1.079       .  S
N926       C2527   1.363       .  A
C927       N2526   1.362       .  A
C927        H933   1.078       .  S
C928       N2529   1.353       .  A
C928        H930   1.081   1_455  S
N929       C2528   1.354   1_545  A
N929        C931   1.353       .  A
C931        H932   1.081       .  S
Zr936       O937   2.437       .  S
Zr936       O938   2.501       .  S
Zr936       O939   2.483       .  S
Zr936       O942   2.452       .  S
Zr936       O944   2.380       .  S
Zr936       O945   2.381       .  S
Zr936       O946   2.429       .  S
Zr936       O947   2.420       .  S
O937        H993   0.990       .  S
O937       H1001   0.990       .  S
O938        C958   1.298       .  A
O939        C960   1.293       .  A
O940       Zr950   2.393       .  S
O940        C959   1.277       .  A
O941       Zr949   2.382       .  S
O941        C960   1.277       .  A
O942        C959   1.288       .  A
O943       Zr951   2.367       .  S
O943        C958   1.267       .  A
O944       Zr949   2.403       .  S
O944       Zr951   2.363       .  S
O945       Zr950   2.394       .  S
O945       Zr951   2.386       .  S
O945        H980   0.964       .  S
O946       Zr949   2.403       .  S
O946       Zr966   2.416       .  S
O946        H983   0.966       .  S
O947       Zr950   2.397       .  S
O947       Zr966   2.415       .  S
Zr948       O973   2.444       .  S
Zr948       O967   2.386       .  S
Zr948       O975   2.401       .  S
Zr948       O963   2.393       .  S
Zr948       O954   2.388       .  S
Zr948       O955   2.399       .  S
Zr948       O956   2.374       .  S
Zr948       O957   2.383       .  S
Zr949       O968   2.435       .  S
Zr949       O961   2.437       .  S
Zr949       O962   2.432       .  S
Zr949       O955   2.383       .  S
Zr949       O956   2.388       .  S
Zr950       O952   2.436       .  S
Zr950       O974   2.443       .  S
Zr950       O976   2.419       .  S
Zr950       O954   2.395       .  S
Zr950       O957   2.393       .  S
Zr951       O977   2.434       .  S
Zr951       O978   2.430       .  S
Zr951       O953   2.440       .  S
Zr951       O954   2.375       .  S
Zr951       O955   2.361       .  S
O952        H989   0.990   1_455  S
O953        H984   0.990       .  S
O953        H998   0.990       .  S
O955        H981   0.965       .  S
O956       Zr966   2.381       .  S
O957       Zr966   2.363       .  S
O957        H982   0.966       .  S
C958       C1445   1.500       .  S
C959       C1474   1.492       .  S
C960       C1410   1.489       .  S
O961        H997   0.990       .  S
O962        C964   1.284       .  A
O963        C964   1.274       .  A
C964       C1429   1.453       .  S
O965       Zr966   2.434       .  S
O965        H994   0.990       .  S
Zr966       O969   2.435       .  S
Zr966       O970   2.438       .  S
Zr966       O971   2.477       .  S
O967        C972   1.276       .  A
O968        H985   0.990       .  S
O968       H1000   0.990       .  S
O969        H986   0.990       .  S
O970        H990   0.990       .  S
O970        H999   0.990       .  S
O971        C972   1.291       .  A
C972       C1461   1.500       .  S
O973        H992   0.991       .  S
O973        H996   0.991       .  S
O974        H988   0.990       .  S
O974        H995   0.990       .  S
O975        C979   1.264       .  A
O976        C979   1.275       .  A
O977        H987   0.990       .  S
O978        H991   0.991       .  S
C979       C1525   1.454       .  S
C1002      C1004   1.535       .  S
C1002      C1006   1.531       .  S
C1002      C1005   1.563       .  S
C1002      C1426   1.527       .  S
C1003      C1007   1.528       .  S
C1003      C1009   1.547       .  S
C1003      C1008   1.596       .  S
C1003      C1442   1.534       .  S
C1004      C1012   1.384       .  A
C1004      C2607   1.368       .  A
C1005      C1016   1.392       .  A
C1005      C2608   1.435       .  A
C1006      C1020   1.382       .  A
C1006      C2609   1.369       .  A
C1007      C2604   1.369   1_545  A
C1007      C1010   1.381       .  A
C1008      C2605   1.430   1_545  A
C1008      C1014   1.412       .  A
C1009      C2606   1.371   1_545  A
C1009      C1017   1.399       .  A
C1010      N2611   1.358   1_545  A
C1010      H1023   1.081       .  S
N1011      C2610   1.358       .  A
N1011      C1012   1.355       .  A
N1011      N2522   1.412       .  S
C1012      H1013   1.082       .  S
C1014      N2615   1.370       .  A
C1014      H1024   1.080       .  S
N1015      C2614   1.367       .  A
N1015      C1016   1.359       .  A
C1016      H1022   1.078       .  S
C1017      N2618   1.364   1_545  A
C1017      H1019   1.082       .  S
N1018      C2617   1.364       .  A
N1018      C1020   1.350       .  A
N1018      C1394   1.448       .  S
C1020      H1021   1.082       .  S
C1025      C1027   1.531       .  S
C1025      C1029   1.536       .  S
C1025      C1028   1.573       .  S
C1025      C1362   1.537       .  S
C1026      C1030   1.534       .  S
C1026      C1032   1.543       .  S
C1026      C1031   1.576       .  S
C1026      C1378   1.544       .  S
C1027      C1035   1.384       .  A
C1027      C1030   1.377       .  A
C1028      C1039   1.399       .  A
C1028      C1031   1.414       .  A
C1029      C1043   1.387       .  A
C1029      C1032   1.394       .  A
C1030      C1033   1.392       .  A
C1031      C1037   1.397       .  A
C1032      C1040   1.386       .  A
C1033      N1034   1.358       .  A
C1033      H1046   1.082       .  S
N1034      C1035   1.350       .  A
N1034      N1123   1.417       .  S
C1035      H1036   1.079       .  S
C1037      N1038   1.366       .  A
C1037      H1047   1.077       .  S
N1038      C1039   1.367       .  A
N1038      N1239   1.434       .  S
C1039      H1045   1.081       .  S
C1040      N1041   1.359       .  A
C1040      H1042   1.081       .  S
N1041      C1043   1.356       .  A
C1043      H1044   1.081       .  S
Zr1048     O1049   2.435       .  S
Zr1048     O1050   2.455       .  S
Zr1048     O1051   2.471       .  S
Zr1048     O1054   2.505       .  S
Zr1048     O1056   2.395       .  S
Zr1048     O1057   2.372       .  S
Zr1048     O2658   2.429       .  S
Zr1048     O1059   2.421       .  S
O1049      H1105   0.990       .  S
O1049      H1113   0.990       .  S
O1050      C1070   1.290       .  A
O1051      C1072   1.293       .  A
O1052     Zr1062   2.361       .  S
O1052      C1071   1.271       .  A
O1053     Zr1061   2.430       .  S
O1053      C2672   1.285   1_545  A
O1054      C1071   1.298       .  A
O1055     Zr1063   2.408       .  S
O1055      C1070   1.277       .  A
O1056     Zr2661   2.398       .  S
O1056     Zr1063   2.383       .  S
O1057     Zr1062   2.385       .  S
O1057     Zr1063   2.347       .  S
O1057      H1092   0.961       .  S
O1058     Zr2648   2.438   1_545  S
O1058     Zr1061   2.394       .  S
O1058     Zr1078   2.409       .  S
O1058      H1095   0.965       .  S
O1059     Zr1062   2.388       .  S
O1059     Zr2678   2.428       .  S
Zr1060     O1085   2.434       .  S
Zr1060     O1079   2.360       .  S
Zr1060     O1087   2.466       .  S
Zr1060     O1075   2.410       .  S
Zr1060     O1066   2.371   1_545  S
Zr1060     O1067   2.395       .  S
Zr1060     O1068   2.381       .  S
Zr1060     O1069   2.363       .  S
Zr1061     O1080   2.439       .  S
Zr1061     O1073   2.434       .  S
Zr1061     O1074   2.434       .  S
Zr1061     O2656   2.396   1_545  S
Zr1061     O1067   2.394       .  S
Zr1061     O1068   2.386       .  S
Zr1062     O1064   2.436       .  S
Zr1062     O1086   2.437       .  S
Zr1062     O1088   2.391       .  S
Zr1062     O2666   2.395       .  S
Zr1062     O2669   2.364       .  S
Zr1063     O1089   2.436       .  S
Zr1063     O1090   2.434       .  S
Zr1063     O1065   2.438       .  S
Zr1063     O2666   2.407       .  S
Zr1063     O2667   2.365       .  S
O1064      H1101   0.990       .  S
O1065      H1096   0.990       .  S
O1065      H1110   0.990       .  S
O1066     Zr2662   2.398       .  S
O1066     Zr2663   2.402       .  S
O1067     Zr2663   2.363   1_545  S
O1067      H1093   0.965       .  S
O1068     Zr1078   2.357       .  S
O1069     Zr2662   2.363   1_545  S
O1069     Zr1078   2.330       .  S
O1069      H1094   0.964       .  S
C1070      C1330   1.497       .  S
C1071      C1365   1.469       .  S
C1072      O2653   1.285       .  A
C1072      C1490   1.492       .  S
O1073      H1109   0.990       .  S
O1074      C1076   1.287       .  A
O1075      C1076   1.281       .  A
C1076      C1346   1.485       .  S
O1077     Zr1078   2.434       .  S
O1077      H1106   0.990       .  S
Zr1078     O1081   2.435       .  S
Zr1078     O1082   2.437       .  S
Zr1078     O1083   2.515       .  S
Zr1078     O2659   2.437   1_545  S
O1079      C1084   1.270       .  A
O1080      H1097   0.990       .  S
O1080      H1112   0.990       .  S
O1081      H1098   0.990       .  S
O1082      H1102   0.990       .  S
O1082      H1111   0.990       .  S
O1083      C1084   1.301       .  A
C1084      C1381   1.500       .  S
O1085      H1104   0.990       .  S
O1085      H1108   0.989       .  S
O1086      H1100   0.990       .  S
O1086      H1107   0.989       .  S
O1087      C1091   1.298       .  A
O1088      C2691   1.275       .  A
O1089      H1099   0.990       .  S
O1090      H2703   0.989       .  S
C1091      O2688   1.272   1_545  A
C1091      C1314   1.474       .  S
H1103      O2690   0.990       .  S
C1114      C1116   1.549       .  S
C1114      C1118   1.542       .  S
C1114      C1117   1.541       .  S
C1114      C1349   1.531       .  S
C1115      C1119   1.536       .  S
C1115      C1121   1.554       .  S
C1115      C1120   1.570       .  S
C1115      C1333   1.540       .  S
C1116      C1124   1.390       .  A
C1116      C1119   1.382       .  A
C1117      C1128   1.378       .  A
C1117      C1120   1.401       .  A
C1118      C1132   1.386       .  A
C1118      C1121   1.396       .  A
C1119      C1122   1.380       .  A
C1120      C1126   1.408       .  A
C1121      C1129   1.389       .  A
C1122      N1123   1.359       .  A
C1122      H1135   1.080       .  S
N1123      C1124   1.356       .  A
C1124      H1125   1.080       .  S
C1126      N1127   1.368       .  A
C1126      H1136   1.080       .  S
N1127      C1128   1.357       .  A
N1127      N1150   1.427       .  S
C1128      H1134   1.080       .  S
C1129      N1130   1.361       .  A
C1129      H1131   1.082       .  S
N1130      C1132   1.354       .  A
N1130      C1509   1.447       .  S
C1132      H1133   1.077       .  S
C1137      C1139   1.536       .  S
C1137      C1141   1.548       .  S
C1137      C1140   1.577       .  S
C1137      C1282   1.550       .  S
C1138      C1142   1.533       .  S
C1138      C1144   1.533       .  S
C1138      C1143   1.555       .  S
C1138      C1301   1.542       .  S
C1139      C1147   1.387       .  A
C1139      C1142   1.383       .  A
C1140      C1151   1.403       .  A
C1140      C1143   1.411       .  A
C1141      C1155   1.389       .  A
C1141      C1144   1.398       .  A
C1142      C1145   1.382       .  A
C1143      C1149   1.380       .  A
C1144      C1152   1.381       .  A
C1145      N1146   1.355       .  A
C1145      H1158   1.081       .  S
N1146      C1147   1.352       .  A
N1146      N1235   1.413       .  S
C1147      H1148   1.081       .  S
C1149      N1150   1.360       .  A
C1149      H1159   1.076       .  S
N1150      C1151   1.365       .  A
C1151      H1157   1.080       .  S
C1152      N1153   1.355       .  A
C1152      H1154   1.081       .  S
N1153      C1155   1.361       .  A
C1155      H1156   1.081       .  S
Zr1160     O1161   2.436       .  S
Zr1160     O1162   2.459       .  S
Zr1160     O1163   2.511       .  S
Zr1160     O1166   2.498       .  S
Zr1160     O1168   2.404       .  S
Zr1160     O1169   2.389       .  S
Zr1160     O2770   2.417       .  S
Zr1160     O1171   2.423       .  S
O1161      H1217   0.990       .  S
O1161      H1225   0.990       .  S
O1162      C1182   1.289       .  A
O1163      C1184   1.301       .  A
O1164     Zr1174   2.390       .  S
O1164      C1183   1.274       .  A
O1165     Zr1173   2.388       .  S
O1165      C2784   1.277   1_545  A
O1166      C1183   1.299       .  A
O1167     Zr1175   2.401       .  S
O1167      C1182   1.276       .  A
O1168     Zr2773   2.420       .  S
O1168     Zr1175   2.339       .  S
O1169     Zr1174   2.374       .  S
O1169     Zr1175   2.386       .  S
O1169      H1204   0.967       .  S
O1170     Zr2760   2.421   1_545  S
O1170     Zr1173   2.413       .  S
O1170     Zr1190   2.405       .  S
O1170      H1207   0.966       .  S
O1171     Zr1174   2.388       .  S
O1171     Zr2790   2.408       .  S
Zr1172     O1197   2.434       .  S
Zr1172     O1191   2.428       .  S
Zr1172     O1199   2.389       .  S
Zr1172     O1187   2.380       .  S
Zr1172     O1179   2.423       .  S
Zr1172     O1180   2.356       .  S
Zr1172     O1181   2.368       .  S
Zr1172     O1178   2.251       .  S
Zr1173     O1192   2.433       .  S
Zr1173     O1185   2.434       .  S
Zr1173     O1186   2.465       .  S
Zr1173     O2768   2.425   1_545  S
Zr1173     O1179   2.389       .  S
Zr1173     O1180   2.385       .  S
Zr1174     O1176   2.436       .  S
Zr1174     O1198   2.437       .  S
Zr1174     O1200   2.426       .  S
Zr1174     O2781   2.389       .  S
Zr1174     O2778   2.217       .  S
Zr1175     O1201   2.422       .  S
Zr1175     O1202   2.434       .  S
Zr1175     O1177   2.437       .  S
Zr1175     O2779   2.380       .  S
Zr1175     O2778   2.298       .  S
O1176      H1213   0.990       .  S
O1177      H1208   0.990       .  S
O1177      H1222   0.990       .  S
O1178     Zr2774   2.217   1_545  S
O1178     Zr2775   2.294   1_545  S
O1179     Zr2775   2.377   1_545  S
O1179      H1205   0.963       .  S
O1180     Zr1190   2.397       .  S
O1181     Zr2774   2.387   1_545  S
O1181     Zr1190   2.396       .  S
O1181      H1206   0.965       .  S
C1182      C1250   1.491       .  S
C1183      C1285   1.506       .  S
C1184      O2765   1.277       .  A
C1184      C1397   1.486       .  S
O1185      H1221   0.990       .  S
O1186      C1188   1.291       .  A
O1187      C1188   1.275       .  A
C1188      C1269   1.457       .  S
O1189     Zr1190   2.434   1_565  S
O1189      H1218   0.990       .  S
Zr1190     O1193   2.435       .  S
Zr1190     O1194   2.440       .  S
Zr1190     O1195   2.428       .  S
Zr1190     O2771   2.410   1_545  S
O1191      C1196   1.281       .  A
O1192      H1209   0.990       .  S
O1192      H1224   0.990       .  S
O1193      H1210   0.990       .  S
O1194      H1214   0.990       .  S
O1194      H1223   0.989       .  S
O1195      C1196   1.280       .  A
C1196      C1298   1.470       .  S
O1197      H1216   0.990       .  S
O1197      H1220   0.991       .  S
O1198      H1212   0.989       .  S
O1198      H1219   0.990       .  S
O1199      C1203   1.270       .  A
O1200      C2803   1.279       .  A
O1201      H1211   0.990       .  S
O1202      H2815   0.989       .  S
C1203      O2800   1.278   1_545  A
C1203      C1317   1.470       .  S
H1215      O2802   0.989       .  S
C1226      C1228   1.520       .  S
C1226      C1230   1.513       .  S
C1226      C1229   1.567       .  S
C1226      C1266   1.518       .  S
C1227      C1231   1.542       .  S
C1227      C1233   1.546       .  S
C1227      C1232   1.587       .  S
C1227      C1253   1.540       .  S
C1228      C1236   1.374       .  A
C1228      C1231   1.369       .  A
C1229      C1240   1.391       .  A
C1229      C1232   1.437       .  A
C1230      C1244   1.377       .  A
C1230      C1233   1.366       .  A
C1231      C1234   1.388       .  A
C1232      C1238   1.405       .  A
C1233      C1241   1.391       .  A
C1234      N1235   1.361       .  A
C1234      H1247   1.081       .  S
N1235      C1236   1.353       .  A
C1236      H1237   1.081       .  S
C1238      N1239   1.367       .  A
C1238      H1248   1.080       .  S
N1239      C1240   1.362       .  A
C1240      H1246   1.080       .  S
C1241      N1242   1.363       .  A
C1241      H1243   1.082       .  S
N1242      C1244   1.347       .  A
N1242      C1413   1.440       .  S
C1244      H1245   1.083       .  S
C1249      C1250   1.418       .  A
C1249      C1254   1.413       .  A
C1249      H1256   1.083       .  S
C1250      C1251   1.406       .  A
C1251      C1258   1.510       .  S
C1251      C1252   1.393       .  A
C1252      C1253   1.420       .  A
C1252      H1257   1.084       .  S
C1253      C1254   1.413       .  A
C1254      C1255   1.502       .  S
C1255      H1259   1.111       .  S
C1255      H1260   1.104       .  S
C1255      H1261   1.110       .  S
C1258      H1262   1.110       .  S
C1258      H1263   1.109       .  S
C1258      H1264   1.111       .  S
C1265      C1266   1.396       .  A
C1265      C1270   1.401       .  A
C1265      H1272   1.082       .  S
C1266      C1267   1.445       .  A
C1267      C1274   1.520       .  S
C1267      C1268   1.387       .  A
C1268      C1269   1.382       .  A
C1268      H1273   1.086       .  S
C1269      C1270   1.415       .  A
C1270      C1271   1.500       .  S
C1271      H1275   1.110       .  S
C1271      H1276   1.109       .  S
C1271      H1277   1.105       .  S
C1274      H1278   1.111       .  S
C1274      H1279   1.100       .  S
C1274      H1280   1.111       .  S
C1281      C1282   1.403       .  A
C1281      C1286   1.406       .  A
C1281      H1288   1.072       .  S
C1282      C1283   1.438       .  A
C1283      C1290   1.510       .  S
C1283      C1284   1.413       .  A
C1284      C1285   1.399       .  A
C1284      H1289   1.084       .  S
C1285      C1286   1.427       .  A
C1286      C1287   1.512       .  S
C1287      H1291   1.111       .  S
C1287      H1292   1.109       .  S
C1287      H1293   1.110       .  S
C1290      H1294   1.106       .  S
C1290      H1295   1.109       .  S
C1290      H1296   1.111       .  S
C1297      C1298   1.402       .  A
C1297      C1302   1.410       .  A
C1297      H1304   1.084       .  S
C1298      C1299   1.405       .  A
C1299      C1306   1.508       .  S
C1299      C1300   1.397       .  A
C1300      C1301   1.414       .  A
C1300      H1305   1.084       .  S
C1301      C1302   1.420       .  A
C1302      C1303   1.503       .  S
C1303      H1307   1.111       .  S
C1303      H1308   1.107       .  S
C1303      H1309   1.110       .  S
C1306      H1310   1.110       .  S
C1306      H1311   1.110       .  S
C1306      H1312   1.111       .  S
C1313      C1314   1.391       .  A
C1313      C1318   1.404       .  A
C1313      H1320   1.082       .  S
C1314      C1315   1.398   1_545  A
C1315      C1322   1.501       .  S
C1315      C1316   1.397       .  A
C1316      C1317   1.413   1_565  A
C1316      H1321   1.082       .  S
C1317      C1318   1.432       .  A
C1318      C1319   1.501       .  S
C1319      H1323   1.106       .  S
C1319      H1324   1.109       .  S
C1319      H1325   1.108       .  S
C1322      H1326   1.111       .  S
C1322      H2927   1.108       .  S
C1322      H1328   1.110       .  S
H1327      C2922   1.108       .  S
C1329      C1330   1.401       .  A
C1329      C1334   1.404       .  A
C1329      H1336   1.084       .  S
C1330      C1331   1.424       .  A
C1331      C1338   1.509       .  S
C1331      C1332   1.406       .  A
C1332      C1333   1.401       .  A
C1332      H1337   1.078       .  S
C1333      C1334   1.431       .  A
C1334      C1335   1.511       .  S
C1335      H1339   1.111       .  S
C1335      H1340   1.110       .  S
C1335      H1341   1.102       .  S
C1338      H1342   1.108       .  S
C1338      H1343   1.110       .  S
C1338      H1344   1.111       .  S
C1345      C1346   1.409       .  A
C1345      C1350   1.404       .  A
C1345      H1352   1.084       .  S
C1346      C1347   1.422       .  A
C1347      C1354   1.511       .  S
C1347      C1348   1.395       .  A
C1348      C1349   1.402       .  A
C1348      H1353   1.084       .  S
C1349      C1350   1.413       .  A
C1350      C1351   1.505       .  S
C1351      H1355   1.109       .  S
C1351      H1356   1.110       .  S
C1351      H1357   1.108       .  S
C1354      H1358   1.109       .  S
C1354      H1359   1.110       .  S
C1354      H1360   1.111       .  S
C1361      C1362   1.407       .  A
C1361      C1366   1.401       .  A
C1361      H1368   1.079       .  S
C1362      C1363   1.443       .  A
C1363      C1370   1.511       .  S
C1363      C1364   1.407       .  A
C1364      C1365   1.388       .  A
C1364      H1369   1.085       .  S
C1365      C1366   1.414       .  A
C1366      C1367   1.508       .  S
C1367      H1371   1.111       .  S
C1367      H1372   1.104       .  S
C1367      H1373   1.111       .  S
C1370      H1374   1.109       .  S
C1370      H1375   1.104       .  S
C1370      H1376   1.111       .  S
C1377      C1378   1.397       .  A
C1377      C1382   1.404       .  A
C1377      H1384   1.071       .  S
C1378      C1379   1.438       .  A
C1379      C1386   1.513       .  S
C1379      C1380   1.408       .  A
C1380      C1381   1.394       .  A
C1380      H1385   1.084       .  S
C1381      C1382   1.428       .  A
C1382      C1383   1.507       .  S
C1383      H1387   1.110       .  S
C1383      H1388   1.108       .  S
C1383      H1389   1.106       .  S
C1386      H1390   1.107       .  S
C1386      H1391   1.106       .  S
C1386      H1392   1.111       .  S
C1393      C1394   1.400       .  A
C1393      C1398   1.410       .  A
C1393      H1400   1.083       .  S
C1394      C2995   1.420       .  A
C1395      C1402   1.504       .  S
C1395      C2994   1.416       .  A
C1395      C1396   1.408       .  A
C1396      C2997   1.402       .  A
C1396      H1401   1.084       .  S
C1397      C2996   1.402       .  A
C1397      C1398   1.419       .  A
C1398      C1399   1.507       .  S
C1399      H1403   1.111       .  S
C1399      H1404   1.109       .  S
C1399      H1405   1.110       .  S
C1402      H1406   1.110       .  S
C1402      H1407   1.107       .  S
C1402      H1408   1.111       .  S
C1409      C1410   1.409       .  A
C1409      C1414   1.400       .  A
C1409      H1416   1.084       .  S
C1410      C1411   1.414       .  A
C1411      C1418   1.504       .  S
C1411      C1412   1.411       .  A
C1412      C1413   1.407       .  A
C1412      H1417   1.083       .  S
C1413      C1414   1.410       .  A
C1414      C1415   1.508       .  S
C1415      H1419   1.111       .  S
C1415      H1420   1.108       .  S
C1415      H1421   1.110       .  S
C1418      H1422   1.110       .  S
C1418      H1423   1.110       .  S
C1418      H1424   1.111       .  S
C1425      C1426   1.421       .  A
C1425      C1430   1.379       .  A
C1425      H1432   1.085       .  S
C1426      C1427   1.411       .  A
C1427      C1434   1.501       .  S
C1427      C1428   1.407       .  A
C1428      C1429   1.410       .  A
C1428      H1433   1.085       .  S
C1429      C1430   1.396       .  A
C1430      C1431   1.511       .  S
C1431      H1435   1.111       .  S
C1431      H1436   1.110       .  S
C1431      H1437   1.110       .  S
C1434      H1438   1.110       .  S
C1434      H1439   1.104       .  S
C1434      H1440   1.111       .  S
C1441      C1442   1.391       .  A
C1441      C1446   1.403       .  A
C1441      H1448   1.078       .  S
C1442      C1443   1.440       .  A
C1443      C1450   1.515       .  S
C1443      C1444   1.403       .  A
C1444      C1445   1.395       .  A
C1444      H1449   1.085       .  S
C1445      C1446   1.435       .  A
C1446      C1447   1.509       .  S
C1447      H1451   1.111       .  S
C1447      H1452   1.108       .  S
C1447      H1453   1.110       .  S
C1450      H1454   1.111       .  S
C1450      H1455   1.100       .  S
C1450      H1456   1.111       .  S
C1457      C1458   1.425       .  A
C1457      C1462   1.410       .  A
C1457      H1464   1.077       .  S
C1458      C1459   1.424       .  A
C1459      C1466   1.508       .  S
C1459      C1460   1.403       .  A
C1460      C1461   1.409       .  A
C1460      H1465   1.085       .  S
C1461      C1462   1.408       .  A
C1462      C1463   1.507       .  S
C1463      H1467   1.111       .  S
C1463      H1468   1.110       .  S
C1463      H1469   1.110       .  S
C1466      H1470   1.108   1_455  S
C1466      H1471   1.100       .  S
C1466      H1472   1.111       .  S
C1473      C1474   1.415       .  A
C1473      C1478   1.403       .  A
C1473      H1480   1.084       .  S
C1474      C1475   1.414       .  A
C1475      C1482   1.508       .  S
C1475      C1476   1.400       .  A
C1476      C1477   1.414       .  A
C1476      H1481   1.084       .  S
C1477      C1478   1.410       .  A
C1478      C1479   1.504   1_455  S
C1479      H1483   1.111       .  S
C1479      H1484   1.109       .  S
C1479      H1485   1.106       .  S
C1482      H1486   1.110       .  S
C1482      H1487   1.110       .  S
C1482      H1488   1.111       .  S
C1489      C3090   1.404       .  A
C1489      C1494   1.404   1_565  A
C1489      H1496   1.084       .  S
C1490      C3089   1.405       .  A
C1490      C1491   1.419       .  A
C1491      C1498   1.504       .  S
C1491      C1492   1.411       .  A
C1492      C1493   1.403       .  A
C1492      H1497   1.084       .  S
C1493      C3094   1.412       .  A
C1494      C1495   1.502       .  S
C1494      C3093   1.412       .  A
C1495      H1499   1.110       .  S
C1495      H1500   1.105       .  S
C1495      H1501   1.111   1_545  S
C1498      H1502   1.110       .  S
C1498      H1503   1.109       .  S
C1498      H1504   1.111       .  S
C1505      C1506   1.411       .  A
C1505      C1510   1.406       .  A
C1505      H1512   1.084       .  S
C1506      C1507   1.416       .  A
C1507      C1514   1.505       .  S
C1507      C1508   1.416       .  A
C1508      C1509   1.407       .  A
C1508      H1513   1.083       .  S
C1509      C1510   1.408       .  A
C1510      C1511   1.504       .  S
C1511      H1515   1.111       .  S
C1511      H1516   1.107       .  S
C1511      H1517   1.110       .  S
C1514      H1518   1.110       .  S
C1514      H1519   1.110       .  S
C1514      H1520   1.111       .  S
C1521      C1522   1.405   1_655  A
C1521      C1526   1.387       .  A
C1521      H1528   1.066       .  S
C1522      C1523   1.399       .  A
C1523      C1530   1.508       .  S
C1523      C1524   1.393       .  A
C1524      C1525   1.407       .  A
C1524      H1529   1.076       .  S
C1525      C1526   1.407   1_455  A
C1526      C1527   1.511       .  S
C1527      H1531   1.110       .  S
C1527      H1532   1.107       .  S
C1527      H1533   1.111       .  S
C1530      H1534   1.109       .  S
C1530      H1535   1.108       .  S
C1530      H1536   1.105       .  S
C1537      C1538   1.398       .  A
C1537      C1542   1.398       .  A
C1537      H1544   1.085       .  S
C1538      C1539   1.425       .  A
C1539      C1546   1.508       .  S
C1539      C1540   1.415       .  A
C1540      C1541   1.405       .  A
C1540      H1545   1.072       .  S
C1541      C1542   1.436       .  A
C1542      C1543   1.513       .  S
C1543      H1547   1.109       .  S
C1543      H1548   1.111       .  S
C1543      H1549   1.099       .  S
C1546      H1550   1.110       .  S
C1546      H1551   1.110       .  S
C1546      H1552   1.111       .  S
C1553      C1554   1.403       .  A
C1553      C1558   1.397       .  A
C1553      H1560   1.085       .  S
C1554      C1555   1.409       .  A
C1555      C1562   1.511       .  S
C1555      C1556   1.395       .  A
C1556      C1557   1.412       .  A
C1556      H1561   1.072       .  S
C1557      C1558   1.429       .  A
C1558      C1559   1.514       .  S
C1559      H1563   1.112       .  S
C1559      H1564   1.101       .  S
C1559      H1565   1.106       .  S
C1562      H1566   1.110       .  S
C1562      H1567   1.110       .  S
C1562      H1568   1.111       .  S
C1569      C1570   1.390       .  A
C1569      C1574   1.408       .  A
C1569      H1576   1.084       .  S
C1570      C1571   1.421       .  A
C1571      C1578   1.507       .  S
C1571      C1572   1.410       .  A
C1572      C1573   1.404       .  A
C1572      H1577   1.078       .  S
C1573      C1574   1.445       .  A
C1574      C1575   1.515       .  S
C1575      H1579   1.111       .  S
C1575      H1580   1.105       .  S
C1575      H1581   1.108       .  S
C1578      H1582   1.110   1_655  S
C1578      H1583   1.104       .  S
C1578      H1584   1.111       .  S
C1585      C1586   1.424       .  A
C1585      C1590   1.401       .  A
C1585      H1592   1.084       .  S
C1586      C1587   1.417       .  A
C1587      C1594   1.498   1_655  S
C1587      C1588   1.417       .  A
C1588      C1589   1.410       .  A
C1588      H1593   1.079       .  S
C1589      C1590   1.400       .  A
C1590      C1591   1.507       .  S
C1591      H1595   1.111       .  S
C1591      H1596   1.110       .  S
C1591      H1597   1.110       .  S
C1594      H1598   1.106       .  S
C1594      H1599   1.110       .  S
C1594      H1600   1.111       .  S
C1601      C1603   1.527       .  S
C1601      C1605   1.532       .  S
C1601      C1604   1.582   1_655  S
C1601      C2373   1.553       .  S
C1602      C1606   1.529       .  S
C1602      C1608   1.532       .  S
C1602      C1607   1.588   1_655  S
C1602      C2386   1.568       .  S
C1603      C1611   1.379       .  A
C1604      C1615   1.402       .  A
C1605      C1619   1.387       .  A
C1606      C1609   1.381       .  A
C1607      C1613   1.396       .  A
C1608      C1616   1.378       .  A
C1609      N1610   1.354   1_565  A
C1609      H1622   1.081       .  S
N1610      N1706   1.408       .  S
C1611      H1612   1.081       .  S
C1613      N1614   1.370   1_565  A
C1613      H1623   1.075       .  S
N1614      N1815   1.438       .  S
C1615      H1621   1.080       .  S
C1616      H1618   1.082       .  S
N1617      C1619   1.358       .  A
N1617      N2529   1.414   1_655  S
C1619      H1620   1.082       .  S
Zr1624     O1625   2.436       .  S
Zr1624     O1626   2.451       .  S
Zr1624     O1627   2.504       .  S
Zr1624     O1630   2.507       .  S
Zr1624     O1632   2.388       .  S
Zr1624     O1633   2.383       .  S
Zr1624     O1634   2.426       .  S
Zr1624     O1635   2.424       .  S
O1625      H1681   0.990       .  S
O1625      H1689   0.990       .  S
O1626      C1646   1.290       .  A
O1627      C1648   1.298       .  A
O1628     Zr1638   2.407       .  S
O1628      C1647   1.278       .  A
O1629     Zr1637   2.405       .  S
O1629      C1648   1.280       .  A
O1630      C1647   1.300       .  A
O1631     Zr1639   2.436       .  S
O1631      C1646   1.281       .  A
O1632     Zr1637   2.401       .  S
O1632     Zr1639   2.371       .  S
O1633     Zr1638   2.399       .  S
O1633     Zr1639   2.353       .  S
O1633      H1668   0.964       .  S
O1634     Zr1637   2.413       .  S
O1634     Zr1654   2.419       .  S
O1634      H1671   0.965       .  S
O1635     Zr1638   2.404       .  S
O1635     Zr1654   2.424       .  S
Zr1636     O1661   2.466       .  S
Zr1636     O1655   2.397       .  S
Zr1636     O1663   2.423       .  S
Zr1636     O1651   2.394       .  S
Zr1636     O1642   2.434       .  S
Zr1636     O1643   2.423       .  S
Zr1636     O1644   2.371       .  S
Zr1636     O1645   2.398       .  S
Zr1637     O1656   2.436       .  S
Zr1637     O1649   2.435       .  S
Zr1637     O1650   2.458       .  S
Zr1637     O1643   2.391       .  S
Zr1637     O1644   2.385       .  S
Zr1638     O1640   2.434       .  S
Zr1638     O1662   2.429       .  S
Zr1638     O1664   2.442       .  S
Zr1638     O1642   2.413       .  S
Zr1638     O1645   2.386       .  S
Zr1639     O1665   2.436       .  S
Zr1639     O1666   2.435       .  S
Zr1639     O1641   2.441       .  S
Zr1639     O1642   2.411       .  S
Zr1639     O1643   2.379       .  S
O1640      H1677   0.990       .  S
O1641      H1672   0.990       .  S
O1641      H1686   0.990       .  S
O1643      H1669   0.963       .  S
O1644     Zr1654   2.391       .  S
O1645     Zr1654   2.363       .  S
O1645      H1670   0.965       .  S
C1646      C2338   1.511       .  S
C1647      C2370   1.495       .  S
C1648      C2306   1.500       .  S
O1649      H1685   0.990       .  S
O1650      C1652   1.289       .  A
O1651      C1652   1.280       .  A
C1652      C2354   1.482       .  S
O1653     Zr1654   2.437       .  S
O1653      H1682   0.990       .  S
Zr1654     O1657   2.434       .  S
Zr1654     O1658   2.437       .  S
Zr1654     O1659   2.477       .  S
O1655      C1660   1.266       .  A
O1656      H1673   0.989       .  S
O1656      H1688   0.990       .  S
O1657      H1674   0.989       .  S
O1658      H1678   0.990       .  S
O1658      H1687   0.990       .  S
O1659      C1660   1.281       .  A
C1660      C2389   1.489       .  S
O1661      H1680   0.991       .  S
O1661      H1684   0.989       .  S
O1662      H1676   0.989       .  S
O1662      H1683   0.987       .  S
O1663      C1667   1.265       .  A
O1664      C1667   1.276       .  A
O1665      H1675   0.990       .  S
O1666      H1679   0.991       .  S
C1667      C2322   1.471       .  S
C1690      C1692   1.555       .  S
C1690      C1694   1.527       .  S
C1690      C1693   1.581       .  S
C1690      C2341   1.551       .  S
C1691      C1695   1.538       .  S
C1691      C1697   1.526       .  S
C1691      C1696   1.545       .  S
C1691      C2357   1.538       .  S
C1692      C1700   1.391       .  A
C1693      C1704   1.403       .  A
C1694      C1708   1.377       .  A
C1695      C1698   1.377       .  A
C1696      C1702   1.372       .  A
C1697      C1705   1.379       .  A
C1698      N1699   1.349   1_565  A
C1698      H1711   1.082       .  S
N1699      C2293   1.439       .  S
C1700      H1701   1.082       .  S
C1702      N1703   1.355   1_565  A
C1702      H1712   1.078       .  S
N1703      N1726   1.424       .  S
C1704      H1710   1.079       .  S
C1705      N1706   1.354   1_565  A
C1705      H1707   1.081       .  S
C1708      H1709   1.081       .  S
C1713      C1715   1.530       .  S
C1713      C1717   1.535       .  S
C1713      C1716   1.565   1_455  S
C1713      C2277   1.537       .  S
C1714      C1718   1.535       .  S
C1714      C1720   1.539       .  S
C1714      C1719   1.560   1_455  S
C1714      C2258   1.546       .  S
C1715      C1723   1.376       .  A
C1716      C1727   1.395       .  A
C1717      C1731   1.386       .  A
C1718      C1721   1.389       .  A
C1719      C1725   1.380       .  A
C1720      C1728   1.381       .  A
C1721      H1734   1.081       .  S
N1722      C1723   1.353       .  A
C1723      H1724   1.081       .  S
C1725      N1726   1.364   1_565  A
C1725      H1735   1.079       .  S
C1727      H1733   1.078       .  S
C1728      H1730   1.081       .  S
N1729      C1731   1.353       .  A
N1729      N2417   1.414   1_454  S
C1731      H1732   1.082       .  S
Zr1736     O1737   2.437       .  S
Zr1736     O1738   2.499       .  S
Zr1736     O1739   2.501       .  S
Zr1736     O1742   2.469       .  S
Zr1736     O1744   2.377       .  S
Zr1736     O1745   2.377       .  S
Zr1736     O1746   2.426       .  S
Zr1736     O1747   2.425       .  S
O1737      H1793   0.990       .  S
O1737      H1801   0.990       .  S
O1738      C1758   1.299       .  A
O1739      C1760   1.297       .  A
O1740     Zr1750   2.372       .  S
O1740      C1759   1.272       .  A
O1741     Zr1749   2.380       .  S
O1741      C1760   1.276       .  A
O1742      C1759   1.291       .  A
O1743     Zr1751   2.350       .  S
O1743      C1758   1.264       .  A
O1744     Zr1749   2.396       .  S
O1744     Zr1751   2.367       .  S
O1745     Zr1750   2.395       .  S
O1745     Zr1751   2.385       .  S
O1745      H1780   0.965       .  S
O1746     Zr1749   2.397       .  S
O1746     Zr1766   2.412       .  S
O1746      H1783   0.966       .  S
O1747     Zr1750   2.400       .  S
O1747     Zr1766   2.418       .  S
Zr1748     O1773   2.438       .  S
Zr1748     O1767   2.379       .  S
Zr1748     O1775   2.417       .  S
Zr1748     O1763   2.397       .  S
Zr1748     O1754   2.379       .  S
Zr1748     O1755   2.393       .  S
Zr1748     O1756   2.376       .  S
Zr1748     O1757   2.382       .  S
Zr1749     O1768   2.435       .  S
Zr1749     O1761   2.437       .  S
Zr1749     O1762   2.416       .  S
Zr1749     O1755   2.383       .  S
Zr1749     O1756   2.383       .  S
Zr1750     O1752   2.437       .  S
Zr1750     O1774   2.441       .  S
Zr1750     O1776   2.407       .  S
Zr1750     O1754   2.398       .  S
Zr1750     O1757   2.384       .  S
Zr1751     O1777   2.433       .  S
Zr1751     O1778   2.430       .  S
Zr1751     O1753   2.441       .  S
Zr1751     O1754   2.373       .  S
Zr1751     O1755   2.353       .  S
O1752      H1789   0.990       .  S
O1753      H1784   0.990       .  S
O1753      H1798   0.990       .  S
O1755      H1781   0.964       .  S
O1756     Zr1766   2.374       .  S
O1757     Zr1766   2.359       .  S
O1757      H1782   0.966       .  S
C1758      C2245   1.497       .  S
C1759      C2274   1.494       .  S
C1760      C2210   1.493       .  S
O1761      H1797   0.990       .  S
O1762      C1764   1.282       .  A
O1763      C1764   1.277       .  A
C1764      C2229   1.447       .  S
O1765     Zr1766   2.437       .  S
O1765      H1794   0.990       .  S
Zr1766     O1769   2.437       .  S
Zr1766     O1770   2.437       .  S
Zr1766     O1771   2.472       .  S
O1767      C1772   1.276       .  A
O1768      H1785   0.989       .  S
O1768      H1800   0.990       .  S
O1769      H1786   0.990       .  S
O1770      H1790   0.990       .  S
O1770      H1799   0.990       .  S
O1771      C1772   1.290       .  A
C1772      C2261   1.493       .  S
O1773      H1792   0.990       .  S
O1773      H1796   0.990       .  S
O1774      H1788   0.990       .  S
O1774      H1795   0.990       .  S
O1775      C1779   1.268       .  A
O1776      C1779   1.273       .  A
O1777      H1787   0.990       .  S
O1778      H1791   0.991       .  S
C1779      C2325   1.454   1_455  S
C1802      C1804   1.539       .  S
C1802      C1806   1.534       .  S
C1802      C1805   1.560       .  S
C1802      C2226   1.523       .  S
C1803      C1807   1.524       .  S
C1803      C1809   1.548       .  S
C1803      C1808   1.594       .  S
C1803      C2242   1.532       .  S
C1804      C1812   1.388       .  A
C1805      C1816   1.391       .  A
C1806      C1820   1.387       .  A
C1807      C1810   1.377       .  A
C1808      C1814   1.411       .  A
C1809      C1817   1.400       .  A
C1810      H1823   1.081       .  S
N1811      C1812   1.357       .  A
C1812      H1813   1.082       .  S
C1814      H1824   1.080       .  S
N1815      C1816   1.359   1_545  A
C1816      H1822   1.076       .  S
C1817      H1819   1.082       .  S
N1818      C1820   1.352       .  A
N1818      C2194   1.453       .  S
C1820      H1821   1.083       .  S
C1825      C1827   1.531       .  S
C1825      C1829   1.535       .  S
C1825      C1828   1.573       .  S
C1825      C2162   1.533       .  S
C1826      C1830   1.531       .  S
C1826      C1832   1.533       .  S
C1826      C1831   1.576       .  S
C1826      C2178   1.536       .  S
C1827      C1835   1.380       .  A
C1827      C1830   1.378       .  A
C1828      C1839   1.397       .  A
C1828      C1831   1.414       .  A
C1829      C1843   1.388       .  A
C1829      C1832   1.387       .  A
C1830      C1833   1.392       .  A
C1831      C1837   1.396       .  A
C1832      C1840   1.378       .  A
C1833      N1834   1.357       .  A
C1833      H1846   1.082       .  S
N1834      C1835   1.346       .  A
N1834      N1923   1.414       .  S
C1835      H1836   1.078       .  S
C1837      N1838   1.367       .  A
C1837      H1847   1.077       .  S
N1838      C1839   1.366       .  A
N1838      N2039   1.432       .  S
C1839      H1845   1.081       .  S
C1840      N1841   1.355   1_554  A
C1840      H1842   1.081       .  S
N1841      C1843   1.358   1_556  A
N1841      N2753   1.416       .  S
C1843      H1844   1.082       .  S
Zr1848     O1849   2.436       .  S
Zr1848     O1850   2.454       .  S
Zr1848     O1851   2.461       .  S
Zr1848     O1854   2.494       .  S
Zr1848     O1856   2.394       .  S
Zr1848     O1857   2.366       .  S
Zr1848     O1859   2.424       .  S
O1849      H1905   0.990       .  S
O1849      H1913   0.990       .  S
O1850      C1870   1.290       .  A
O1851      C1872   1.291       .  A
O1852     Zr1862   2.367       .  S
O1852      C1871   1.271       .  A
O1853     Zr1861   2.442       .  S
O1854      C1871   1.296       .  A
O1855     Zr1863   2.400       .  S
O1855      C1870   1.275       .  A
O1856     Zr1863   2.386       .  S
O1857     Zr1862   2.381       .  S
O1857     Zr1863   2.346       .  S
O1857      H1892   0.961       .  S
O1858     Zr1861   2.398       .  S
O1858     Zr1878   2.405       .  S
O1858      H1895   0.965       .  S
O1859     Zr1862   2.385       .  S
Zr1860     O1885   2.434       .  S
Zr1860     O1879   2.351       .  S
Zr1860     O1887   2.474       .  S
Zr1860     O1875   2.415       .  S
Zr1860     O1866   2.368       .  S
Zr1860     O1867   2.393       .  S
Zr1860     O1868   2.385       .  S
Zr1860     O1869   2.366       .  S
Zr1861     O1880   2.438       .  S
Zr1861     O1873   2.434       .  S
Zr1861     O1874   2.444       .  S
Zr1861     O1867   2.393       .  S
Zr1861     O1868   2.392       .  S
Zr1862     O1864   2.436       .  S
Zr1862     O1886   2.432       .  S
Zr1862     O1888   2.385       .  S
Zr1863     O1889   2.440       .  S
Zr1863     O1890   2.435       .  S
Zr1863     O1865   2.436       .  S
O1864      H1901   0.991       .  S
O1865      H1896   0.990       .  S
O1865      H1910   0.990       .  S
O1867      H1893   0.965       .  S
O1868     Zr1878   2.363       .  S
O1869     Zr1878   2.332       .  S
O1869      H1894   0.963       .  S
C1870      C2130   1.492       .  S
C1871      C2165   1.465       .  S
C1872      C2290   1.489       .  S
O1873      H1909   0.990       .  S
O1874      C1876   1.288       .  A
O1875      C1876   1.283       .  A
C1876      C2146   1.489       .  S
O1877     Zr1878   2.436       .  S
O1877      H1906   0.990       .  S
Zr1878     O1881   2.435       .  S
Zr1878     O1882   2.437       .  S
Zr1878     O1883   2.508       .  S
O1879      C1884   1.267       .  A
O1880      H1897   0.990       .  S
O1880      H1912   0.990       .  S
O1881      H1898   0.990       .  S
O1882      H1902   0.990       .  S
O1882      H1911   0.990       .  S
O1883      C1884   1.299       .  A
C1884      C2181   1.494       .  S
O1885      H1904   0.988       .  S
O1885      H1908   0.990       .  S
O1886      H1900   0.989       .  S
O1886      H1907   0.989       .  S
O1887      C1891   1.298       .  A
O1889      H1899   0.990       .  S
C1891      C2114   1.474       .  S
C1914      C1916   1.545       .  S
C1914      C1918   1.547       .  S
C1914      C1917   1.541       .  S
C1914      C2149   1.533       .  S
C1915      C1919   1.537       .  S
C1915      C1921   1.554       .  S
C1915      C1920   1.568       .  S
C1915      C2133   1.541       .  S
C1916      C1924   1.388       .  A
C1916      C1919   1.381       .  A
C1917      C1928   1.376       .  A
C1917      C1920   1.400       .  A
C1918      C1932   1.390       .  A
C1918      C1921   1.397       .  A
C1919      C1922   1.378       .  A
C1920      C1926   1.407       .  A
C1921      C1929   1.388       .  A
C1922      N1923   1.359       .  A
C1922      H1935   1.080       .  S
N1923      C1924   1.354       .  A
C1924      H1925   1.080       .  S
C1926      N1927   1.367       .  A
C1926      H1936   1.080       .  S
N1927      C1928   1.357       .  A
N1927      N1950   1.426       .  S
C1928      H1934   1.080       .  S
C1929      N1930   1.361       .  A
C1929      H1931   1.082       .  S
N1930      C1932   1.357       .  A
N1930      C2309   1.451       .  S
C1932      H1933   1.078       .  S
C1937      C1939   1.532       .  S
C1937      C1941   1.543       .  S
C1937      C1940   1.580       .  S
C1937      C2082   1.549       .  S
C1938      C1942   1.533       .  S
C1938      C1944   1.538       .  S
C1938      C1943   1.554       .  S
C1938      C2101   1.549       .  S
C1939      C1947   1.384       .  A
C1939      C1942   1.382       .  A
C1940      C1951   1.406       .  A
C1940      C1943   1.416       .  A
C1941      C1955   1.388       .  A
C1941      C1944   1.398       .  A
C1942      C1945   1.381       .  A
C1943      C1949   1.378       .  A
C1944      C1952   1.384       .  A
C1945      N1946   1.353       .  A
C1945      H1958   1.081       .  S
N1946      C1947   1.352       .  A
N1946      N2035   1.411       .  S
C1947      H1948   1.081       .  S
C1949      N1950   1.358       .  A
C1949      H1959   1.076       .  S
N1950      C1951   1.366       .  A
C1951      H1957   1.077       .  S
C1952      N1953   1.360       .  A
C1952      H1954   1.081       .  S
N1953      C1955   1.359       .  A
N1953      N2641   1.420       .  S
C1955      H1956   1.081       .  S
Zr1960     O1961   2.436       .  S
Zr1960     O1962   2.457       .  S
Zr1960     O1963   2.504       .  S
Zr1960     O1966   2.490       .  S
Zr1960     O1968   2.406       .  S
Zr1960     O1969   2.392       .  S
Zr1960     O1971   2.421       .  S
O1961      H2017   0.990       .  S
O1961      H2025   0.990       .  S
O1962      C1982   1.288       .  A
O1963      C1984   1.298       .  A
O1964     Zr1974   2.401       .  S
O1964      C1983   1.275       .  A
O1965     Zr1973   2.387       .  S
O1966      C1983   1.298       .  A
O1967     Zr1975   2.396       .  S
O1967      C1982   1.276       .  A
O1968     Zr1975   2.345       .  S
O1969     Zr1974   2.370       .  S
O1969     Zr1975   2.387       .  S
O1969      H2004   0.965       .  S
O1970     Zr1973   2.421       .  S
O1970     Zr1990   2.410       .  S
O1970      H2007   0.967       .  S
O1971     Zr1974   2.392       .  S
Zr1972     O1997   2.436       .  S
Zr1972     O1991   2.442       .  S
Zr1972     O1999   2.386       .  S
Zr1972     O1987   2.379       .  S
Zr1972     O1979   2.422       .  S
Zr1972     O1980   2.353       .  S
Zr1972     O1981   2.366       .  S
Zr1972     O1978   2.256       .  S
Zr1973     O1992   2.435       .  S
Zr1973     O1985   2.435       .  S
Zr1973     O1986   2.468       .  S
Zr1973     O1979   2.388       .  S
Zr1973     O1980   2.391       .  S
Zr1974     O1976   2.436       .  S
Zr1974     O1998   2.435       .  S
Zr1974     O2000   2.434       .  S
Zr1975     O2001   2.422       .  S
Zr1975     O2002   2.435   1_565  S
Zr1975     O1977   2.437       .  S
O1976      H2013   0.990       .  S
O1977      H2008   0.989   1_565  S
O1977      H2022   0.990       .  S
O1979      H2005   0.965       .  S
O1980     Zr1990   2.393       .  S
O1981     Zr1990   2.392       .  S
O1981      H2006   0.965       .  S
C1982      C2050   1.487       .  S
C1983      C2085   1.512       .  S
C1984      C2197   1.492       .  S
O1985      H2021   0.990       .  S
O1986      C1988   1.292       .  A
O1987      C1988   1.275       .  A
C1988      C2069   1.460       .  S
O1989     Zr1990   2.434       .  S
O1989      H2018   0.990       .  S
Zr1990     O1993   2.433       .  S
Zr1990     O1994   2.438       .  S
Zr1990     O1995   2.431       .  S
O1991      C1996   1.284       .  A
O1992      H2009   0.990       .  S
O1992      H2024   0.990       .  S
O1993      H2010   0.990       .  S
O1994      H2014   0.990       .  S
O1994      H2023   0.990       .  S
O1995      C1996   1.281       .  A
C1996      C2098   1.479       .  S
O1997      H2016   0.990       .  S
O1997      H2020   0.991       .  S
O1998      H2012   0.989       .  S
O1998      H2019   0.990       .  S
O1999      C2003   1.271       .  A
O2001      H2011   0.990       .  S
C2003      C2117   1.476       .  S
C2026      C2028   1.522       .  S
C2026      C2030   1.514       .  S
C2026      C2029   1.566       .  S
C2026      C2066   1.519       .  S
C2027      C2031   1.536       .  S
C2027      C2033   1.544       .  S
C2027      C2032   1.587       .  S
C2027      C2053   1.542       .  S
C2028      C2036   1.375       .  A
C2028      C2031   1.369       .  A
C2029      C2040   1.390       .  A
C2029      C2032   1.439       .  A
C2030      C2044   1.377       .  A
C2030      C2033   1.366       .  A
C2031      C2034   1.383       .  A
C2032      C2038   1.404       .  A
C2033      C2041   1.391       .  A
C2034      N2035   1.358       .  A
C2034      H2047   1.081       .  S
N2035      C2036   1.354       .  A
C2036      H2037   1.081       .  S
C2038      N2039   1.367       .  A
C2038      H2048   1.080       .  S
N2039      C2040   1.361       .  A
C2040      H2046   1.080       .  S
C2041      N2042   1.361       .  A
C2041      H2043   1.082       .  S
N2042      C2044   1.348       .  A
N2042      C2213   1.440       .  S
C2044      H2045   1.083       .  S
C2049      C2050   1.417       .  A
C2049      C2054   1.412       .  A
C2049      H2056   1.083       .  S
C2050      C2051   1.405       .  A
C2051      C2058   1.511       .  S
C2051      C2052   1.392       .  A
C2052      C2053   1.422       .  A
C2052      H2057   1.084       .  S
C2053      C2054   1.413       .  A
C2054      C2055   1.501       .  S
C2055      H2059   1.111       .  S
C2055      H2060   1.103       .  S
C2055      H2061   1.110       .  S
C2058      H2062   1.110       .  S
C2058      H2063   1.109       .  S
C2058      H2064   1.111       .  S
C2065      C2066   1.396       .  A
C2065      C2070   1.400       .  A
C2065      H2072   1.081       .  S
C2066      C2067   1.444       .  A
C2067      C2074   1.519       .  S
C2067      C2068   1.388       .  A
C2068      C2069   1.382       .  A
C2068      H2073   1.086       .  S
C2069      C2070   1.416       .  A
C2070      C2071   1.499       .  S
C2071      H2075   1.110       .  S
C2071      H2076   1.109       .  S
C2071      H2077   1.106       .  S
C2074      H2078   1.111       .  S
C2074      H2079   1.100       .  S
C2074      H2080   1.111       .  S
C2081      C2082   1.397       .  A
C2081      C2086   1.410       .  A
C2081      H2088   1.071       .  S
C2082      C2083   1.435       .  A
C2083      C2090   1.513       .  S
C2083      C2084   1.409       .  A
C2084      C2085   1.400       .  A
C2084      H2089   1.083       .  S
C2085      C2086   1.433       .  A
C2086      C2087   1.509       .  S
C2087      H2091   1.111       .  S
C2087      H2092   1.110       .  S
C2087      H2093   1.108       .  S
C2090      H2094   1.108       .  S
C2090      H2095   1.107       .  S
C2090      H2096   1.111       .  S
C2097      C2098   1.405       .  A
C2097      C2102   1.413       .  A
C2097      H2104   1.084       .  S
C2098      C2099   1.407       .  A
C2099      C2106   1.509       .  S
C2099      C2100   1.400       .  A
C2100      C2101   1.414       .  A
C2100      H2105   1.084       .  S
C2101      C2102   1.420       .  A
C2102      C2103   1.504       .  S
C2103      H2107   1.110       .  S
C2103      H2108   1.107       .  S
C2103      H2109   1.110       .  S
C2106      H2110   1.110       .  S
C2106      H2111   1.111       .  S
C2106      H2112   1.111       .  S
C2113      C2114   1.391       .  A
C2113      C2118   1.404       .  A
C2113      H2120   1.082       .  S
C2114      C2115   1.400       .  A
C2115      C2122   1.502       .  S
C2115      C2116   1.398       .  A
C2116      C2117   1.412       .  A
C2116      H2121   1.082       .  S
C2117      C2118   1.433       .  A
C2118      C2119   1.501       .  S
C2119      H2123   1.107       .  S
C2119      H2124   1.107       .  S
C2119      H2125   1.109       .  S
C2122      H2126   1.111       .  S
C2122      H2128   1.110       .  S
C2129      C2130   1.398       .  A
C2129      C2134   1.401       .  A
C2129      H2136   1.085       .  S
C2130      C2131   1.423       .  A
C2131      C2138   1.510       .  S
C2131      C2132   1.407       .  A
C2132      C2133   1.403       .  A
C2132      H2137   1.078       .  S
C2133      C2134   1.432       .  A
C2134      C2135   1.511       .  S
C2135      H2139   1.111       .  S
C2135      H2140   1.110       .  S
C2135      H2141   1.102       .  S
C2138      H2142   1.108       .  S
C2138      H2143   1.110       .  S
C2138      H2144   1.111       .  S
C2145      C2146   1.410       .  A
C2145      C2150   1.405       .  A
C2145      H2152   1.084       .  S
C2146      C2147   1.422       .  A
C2147      C2154   1.511       .  S
C2147      C2148   1.397       .  A
C2148      C2149   1.405       .  A
C2148      H2153   1.084       .  S
C2149      C2150   1.411       .  A
C2150      C2151   1.504       .  S
C2151      H2155   1.109       .  S
C2151      H2156   1.110       .  S
C2151      H2157   1.108       .  S
C2154      H2158   1.110       .  S
C2154      H2159   1.110       .  S
C2154      H2160   1.111       .  S
C2161      C2162   1.407       .  A
C2161      C2166   1.400       .  A
C2161      H2168   1.079       .  S
C2162      C2163   1.442       .  A
C2163      C2170   1.512       .  S
C2163      C2164   1.405       .  A
C2164      C2165   1.387       .  A
C2164      H2169   1.084       .  S
C2165      C2166   1.413       .  A
C2166      C2167   1.508       .  S
C2167      H2171   1.111       .  S
C2167      H2172   1.103       .  S
C2167      H2173   1.111       .  S
C2170      H2174   1.109       .  S
C2170      H2175   1.104       .  S
C2170      H2176   1.111       .  S
C2177      C2178   1.392       .  A
C2177      C2182   1.400       .  A
C2177      H2184   1.072       .  S
C2178      C2179   1.440       .  A
C2179      C2186   1.515       .  S
C2179      C2180   1.406       .  A
C2180      C2181   1.393       .  A
C2180      H2185   1.084       .  S
C2181      C2182   1.430       .  A
C2182      C2183   1.509       .  S
C2183      H2187   1.110       .  S
C2183      H2188   1.108       .  S
C2183      H2189   1.106       .  S
C2186      H2190   1.107       .  S
C2186      H2191   1.106       .  S
C2186      H2192   1.111       .  S
C2193      C2194   1.410       .  A
C2193      C2198   1.420       .  A
C2193      H2200   1.083       .  S
C2195      C2202   1.504       .  S
C2195      C2196   1.408       .  A
C2196      H2201   1.085       .  S
C2197      C2198   1.415       .  A
C2198      C2199   1.505       .  S
C2199      H2203   1.111       .  S
C2199      H2204   1.110       .  S
C2199      H2205   1.111       .  S
C2202      H2206   1.109       .  S
C2202      H2207   1.109       .  S
C2202      H2208   1.111       .  S
C2209      C2210   1.411       .  A
C2209      C2214   1.403       .  A
C2209      H2216   1.084       .  S
C2210      C2211   1.414       .  A
C2211      C2218   1.503       .  S
C2211      C2212   1.411       .  A
C2212      C2213   1.405       .  A
C2212      H2217   1.083       .  S
C2213      C2214   1.411       .  A
C2214      C2215   1.508       .  S
C2215      H2219   1.111       .  S
C2215      H2220   1.109       .  S
C2215      H2221   1.110       .  S
C2218      H2222   1.110       .  S
C2218      H2223   1.109       .  S
C2218      H2224   1.111       .  S
C2225      C2226   1.418       .  A
C2225      C2230   1.378       .  A
C2225      H2232   1.085       .  S
C2226      C2227   1.413       .  A
C2227      C2234   1.501       .  S
C2227      C2228   1.405       .  A
C2228      C2229   1.406       .  A
C2228      H2233   1.085       .  S
C2229      C2230   1.397       .  A
C2230      C2231   1.511       .  S
C2231      H2235   1.111       .  S
C2231      H2236   1.110       .  S
C2231      H2237   1.110       .  S
C2234      H2238   1.110       .  S
C2234      H2239   1.105       .  S
C2234      H2240   1.111       .  S
C2241      C2242   1.394       .  A
C2241      C2246   1.406       .  A
C2241      H2248   1.080       .  S
C2242      C2243   1.439       .  A
C2243      C2250   1.515       .  S
C2243      C2244   1.398       .  A
C2244      C2245   1.392       .  A
C2244      H2249   1.085       .  S
C2245      C2246   1.436       .  A
C2246      C2247   1.511       .  S
C2247      H2251   1.111       .  S
C2247      H2252   1.107       .  S
C2247      H2253   1.111       .  S
C2250      H2254   1.111       .  S
C2250      H2255   1.100       .  S
C2250      H2256   1.111       .  S
C2257      C2258   1.424       .  A
C2257      C2262   1.405       .  A
C2257      H2264   1.078       .  S
C2258      C2259   1.422       .  A
C2259      C2266   1.507       .  S
C2259      C2260   1.401       .  A
C2260      C2261   1.408       .  A
C2260      H2265   1.085       .  S
C2261      C2262   1.406       .  A
C2262      C2263   1.508       .  S
C2263      H2267   1.111       .  S
C2263      H2268   1.110       .  S
C2263      H2269   1.109       .  S
C2266      H2270   1.106   1_455  S
C2266      H2271   1.101       .  S
C2266      H2272   1.111       .  S
C2273      C2274   1.419       .  A
C2273      C2278   1.404       .  A
C2273      H2280   1.084       .  S
C2274      C2275   1.411       .  A
C2275      C2282   1.508       .  S
C2275      C2276   1.400       .  A
C2276      C2277   1.417       .  A
C2276      H2281   1.084       .  S
C2277      C2278   1.408       .  A
C2278      C2279   1.503   1_455  S
C2279      H2283   1.111       .  S
C2279      H2284   1.110       .  S
C2279      H2285   1.106       .  S
C2282      H2286   1.110       .  S
C2282      H2287   1.110       .  S
C2282      H2288   1.111       .  S
C2289      C2294   1.406       .  A
C2289      H2296   1.084       .  S
C2290      C2291   1.420       .  A
C2291      C2298   1.505       .  S
C2291      C2292   1.409       .  A
C2292      C2293   1.401   1_565  A
C2292      H2297   1.084       .  S
C2294      C2295   1.503       .  S
C2295      H2299   1.111       .  S
C2295      H2300   1.106       .  S
C2295      H2301   1.111       .  S
C2298      H2302   1.110       .  S
C2298      H2303   1.109       .  S
C2298      H2304   1.111       .  S
C2305      C2306   1.410       .  A
C2305      C2310   1.407       .  A
C2305      H2312   1.084       .  S
C2306      C2307   1.417       .  A
C2307      C2314   1.505       .  S
C2307      C2308   1.419       .  A
C2308      C2309   1.409       .  A
C2308      H2313   1.083       .  S
C2309      C2310   1.410       .  A
C2310      C2311   1.504       .  S
C2311      H2315   1.111       .  S
C2311      H2316   1.107       .  S
C2311      H2317   1.110       .  S
C2314      H2318   1.110       .  S
C2314      H2319   1.110       .  S
C2314      H2320   1.111       .  S
C2321      C2322   1.407       .  A
C2321      C2326   1.389       .  A
C2321      H2328   1.069       .  S
C2322      C2323   1.402   1_655  A
C2323      C2330   1.512       .  S
C2323      C2324   1.395       .  A
C2324      C2325   1.407   1_455  A
C2324      H2329   1.079       .  S
C2325      C2326   1.406       .  A
C2326      C2327   1.510       .  S
C2327      H2331   1.111       .  S
C2327      H2332   1.108       .  S
C2327      H2333   1.110       .  S
C2330      H2334   1.105       .  S
C2330      H2335   1.102       .  S
C2330      H2336   1.110       .  S
C2337      C2338   1.399       .  A
C2337      C2342   1.399       .  A
C2337      H2344   1.084       .  S
C2338      C2339   1.427       .  A
C2339      C2346   1.507       .  S
C2339      C2340   1.420       .  A
C2340      C2341   1.408       .  A
C2340      H2345   1.077       .  S
C2341      C2342   1.435       .  A
C2342      C2343   1.515       .  S
C2343      H2347   1.109       .  S
C2343      H2348   1.111       .  S
C2343      H2349   1.100       .  S
C2346      H2350   1.109       .  S
C2346      H2351   1.111       .  S
C2346      H2352   1.111       .  S
C2353      C2354   1.405       .  A
C2353      C2358   1.399       .  A
C2353      H2360   1.085       .  S
C2354      C2355   1.408       .  A
C2355      C2362   1.509       .  S
C2355      C2356   1.398       .  A
C2356      C2357   1.415       .  A
C2356      H2361   1.075       .  S
C2357      C2358   1.426       .  A
C2358      C2359   1.511       .  S
C2359      H2363   1.112       .  S
C2359      H2364   1.102       .  S
C2359      H2365   1.104       .  S
C2362      H2366   1.109       .  S
C2362      H2367   1.110       .  S
C2362      H2368   1.111       .  S
C2369      C2370   1.391       .  A
C2369      C2374   1.411       .  A
C2369      H2376   1.084       .  S
C2370      C2371   1.422       .  A
C2371      C2378   1.505       .  S
C2371      C2372   1.410       .  A
C2372      C2373   1.403       .  A
C2372      H2377   1.078       .  S
C2373      C2374   1.446       .  A
C2374      C2375   1.514       .  S
C2375      H2379   1.111       .  S
C2375      H2380   1.106       .  S
C2375      H2381   1.108       .  S
C2378      H2382   1.110       .  S
C2378      H2383   1.104       .  S
C2378      H2384   1.111       .  S
C2385      C2386   1.425       .  A
C2385      C2390   1.403       .  A
C2385      H2392   1.084       .  S
C2386      C2387   1.419       .  A
C2387      C2394   1.497   1_655  S
C2387      C2388   1.421       .  A
C2388      C2389   1.410       .  A
C2388      H2393   1.082       .  S
C2389      C2390   1.401       .  A
C2390      C2391   1.508       .  S
C2391      H2395   1.111       .  S
C2391      H2396   1.110       .  S
C2391      H2397   1.110       .  S
C2394      H2398   1.106       .  S
C2394      H2399   1.110       .  S
C2394      H2400   1.111       .  S
C2401      C2403   1.527       .  S
C2401      C2405   1.534       .  S
C2401      C2404   1.581   1_655  S
C2401      C3173   1.556       .  S
C2402      C2406   1.529       .  S
C2402      C2408   1.533       .  S
C2402      C2407   1.590   1_655  S
C2402      C3186   1.565       .  S
C2403      C2411   1.373       .  A
C2404      C2415   1.402       .  A
C2405      C2419   1.387       .  A
C2406      C2409   1.380       .  A
C2407      C2413   1.399       .  A
C2408      C2416   1.377       .  A
C2409      N2410   1.352   1_565  A
C2409      H2422   1.081       .  S
N2410      N2506   1.408       .  S
C2411      H2412   1.080       .  S
C2413      N2414   1.371   1_565  A
C2413      H2423   1.076       .  S
N2414      N2615   1.437       .  S
C2415      H2421   1.080       .  S
C2416      H2418   1.081       .  S
N2417      C2419   1.359       .  A
C2419      H2420   1.081       .  S
Zr2424     O2425   2.436       .  S
Zr2424     O2426   2.442       .  S
Zr2424     O2427   2.499       .  S
Zr2424     O2430   2.504       .  S
Zr2424     O2432   2.391       .  S
Zr2424     O2433   2.381       .  S
Zr2424     O2434   2.422       .  S
Zr2424     O2435   2.426       .  S
O2425      H2481   0.990       .  S
O2425      H2489   0.990       .  S
O2426      C2446   1.289       .  A
O2427      C2448   1.297       .  A
O2428     Zr2438   2.423       .  S
O2428      C2447   1.282       .  A
O2429     Zr2437   2.407       .  S
O2429      C2448   1.281       .  A
O2430      C2447   1.300       .  A
O2431     Zr2439   2.432       .  S
O2431      C2446   1.280       .  A
O2432     Zr2437   2.404       .  S
O2432     Zr2439   2.374       .  S
O2433     Zr2438   2.401       .  S
O2433     Zr2439   2.345       .  S
O2433      H2468   0.963       .  S
O2434     Zr2437   2.412       .  S
O2434     Zr2454   2.415       .  S
O2434      H2471   0.965       .  S
O2435     Zr2438   2.405       .  S
O2435     Zr2454   2.427       .  S
Zr2436     O2461   2.470       .  S
Zr2436     O2455   2.392       .  S
Zr2436     O2463   2.418       .  S
Zr2436     O2451   2.394       .  S
Zr2436     O2442   2.428       .  S
Zr2436     O2443   2.418       .  S
Zr2436     O2444   2.368       .  S
Zr2436     O2445   2.400       .  S
Zr2437     O2456   2.436       .  S
Zr2437     O2449   2.436       .  S
Zr2437     O2450   2.459       .  S
Zr2437     O2443   2.395       .  S
Zr2437     O2444   2.391       .  S
Zr2438     O2440   2.435       .  S
Zr2438     O2462   2.433       .  S
Zr2438     O2464   2.438       .  S
Zr2438     O2442   2.414       .  S
Zr2438     O2445   2.391       .  S
Zr2439     O2465   2.436       .  S
Zr2439     O2466   2.434       .  S
Zr2439     O2441   2.441       .  S
Zr2439     O2442   2.398       .  S
Zr2439     O2443   2.384       .  S
O2440      H2477   0.990       .  S
O2441      H2472   0.990       .  S
O2441      H2486   0.989       .  S
O2443      H2469   0.964       .  S
O2444     Zr2454   2.393       .  S
O2445     Zr2454   2.360       .  S
O2445      H2470   0.965       .  S
C2446      C3138   1.507       .  S
C2447      C3170   1.497       .  S
C2448      C3106   1.499       .  S
O2449      H2485   0.990       .  S
O2450      C2452   1.289       .  A
O2451      C2452   1.280       .  A
C2452      C3154   1.484       .  S
O2453     Zr2454   2.437       .  S
O2453      H2482   0.990       .  S
Zr2454     O2457   2.436       .  S
Zr2454     O2458   2.438       .  S
Zr2454     O2459   2.480       .  S
O2455      C2460   1.265       .  A
O2456      H2473   0.990       .  S
O2456      H2488   0.990       .  S
O2457      H2474   0.990       .  S
O2458      H2478   0.990       .  S
O2458      H2487   0.990       .  S
O2459      C2460   1.282       .  A
C2460      C3189   1.489       .  S
O2461      H2480   0.991       .  S
O2461      H2484   0.989       .  S
O2462      H2476   0.990   1_655  S
O2462      H2483   0.988       .  S
O2463      C2467   1.265       .  A
O2464      C2467   1.277       .  A
O2465      H2475   0.990       .  S
O2466      H2479   0.991       .  S
C2467      C3122   1.465       .  S
C2490      C2492   1.553       .  S
C2490      C2494   1.524       .  S
C2490      C2493   1.585       .  S
C2490      C3141   1.547       .  S
C2491      C2495   1.538       .  S
C2491      C2497   1.527       .  S
C2491      C2496   1.546       .  S
C2491      C3157   1.538       .  S
C2492      C2500   1.389       .  A
C2493      C2504   1.408       .  A
C2494      C2508   1.372       .  A
C2495      C2498   1.377       .  A
C2496      C2502   1.374       .  A
C2497      C2505   1.379       .  A
C2498      N2499   1.349   1_565  A
C2498      H2511   1.082       .  S
N2499      C3093   1.441       .  S
C2500      H2501   1.082       .  S
C2502      N2503   1.355   1_565  A
C2502      H2512   1.078       .  S
N2503      N2526   1.425       .  S
C2504      H2510   1.078       .  S
C2505      N2506   1.356   1_565  A
C2505      H2507   1.081       .  S
C2508      H2509   1.080       .  S
C2513      C2515   1.529       .  S
C2513      C2517   1.533       .  S
C2513      C2516   1.564   1_455  S
C2513      C3077   1.539       .  S
C2514      C2518   1.540       .  S
C2514      C2520   1.546       .  S
C2514      C2519   1.562   1_455  S
C2514      C3058   1.549       .  S
C2515      C2523   1.375       .  A
C2516      C2527   1.395       .  A
C2517      C2531   1.385       .  A
C2518      C2521   1.391       .  A
C2519      C2525   1.383       .  A
C2520      C2528   1.386       .  A
C2521      H2534   1.081       .  S
N2522      C2523   1.350       .  A
C2523      H2524   1.081       .  S
C2525      N2526   1.365   1_565  A
C2525      H2535   1.079       .  S
C2527      H2533   1.078       .  S
C2528      H2530   1.082       .  S
N2529      C2531   1.353       .  A
C2531      H2532   1.082       .  S
Zr2536     O2537   2.436       .  S
Zr2536     O2538   2.490       .  S
Zr2536     O2539   2.494       .  S
Zr2536     O2542   2.459       .  S
Zr2536     O2544   2.383       .  S
Zr2536     O2545   2.384       .  S
Zr2536     O2546   2.425       .  S
Zr2536     O2547   2.425       .  S
O2537      H2593   0.990       .  S
O2537      H2601   0.990       .  S
O2538      C2558   1.296       .  A
O2539      C2560   1.296       .  A
O2540     Zr2550   2.389       .  S
O2540      C2559   1.275       .  A
O2541     Zr2549   2.385       .  S
O2541      C2560   1.277       .  A
O2542      C2559   1.289       .  A
O2543     Zr2551   2.357       .  S
O2543      C2558   1.265       .  A
O2544     Zr2549   2.402       .  S
O2544     Zr2551   2.368       .  S
O2545     Zr2550   2.398       .  S
O2545     Zr2551   2.384       .  S
O2545      H2580   0.965       .  S
O2546     Zr2549   2.404       .  S
O2546     Zr2566   2.409       .  S
O2546      H2583   0.965       .  S
O2547     Zr2550   2.401       .  S
O2547     Zr2566   2.417       .  S
Zr2548     O2573   2.444       .  S
Zr2548     O2567   2.385       .  S
Zr2548     O2575   2.403       .  S
Zr2548     O2563   2.397       .  S
Zr2548     O2554   2.384       .  S
Zr2548     O2555   2.403       .  S
Zr2548     O2556   2.369       .  S
Zr2548     O2557   2.392       .  S
Zr2549     O2568   2.436       .  S
Zr2549     O2561   2.435       .  S
Zr2549     O2562   2.427       .  S
Zr2549     O2555   2.390       .  S
Zr2549     O2556   2.387       .  S
Zr2550     O2552   2.435       .  S
Zr2550     O2574   2.442       .  S
Zr2550     O2576   2.417       .  S
Zr2550     O2554   2.393       .  S
Zr2550     O2557   2.396       .  S
Zr2551     O2577   2.438       .  S
Zr2551     O2578   2.429       .  S
Zr2551     O2553   2.440       .  S
Zr2551     O2554   2.367       .  S
Zr2551     O2555   2.372       .  S
O2552      H2589   0.990       .  S
O2553      H2584   0.990       .  S
O2553      H2598   0.990       .  S
O2555      H2581   0.965       .  S
O2556     Zr2566   2.377       .  S
O2557     Zr2566   2.366       .  S
O2557      H2582   0.966       .  S
C2558      C3045   1.496       .  S
C2559      C3074   1.494       .  S
C2560      C3010   1.494       .  S
O2561      H2597   0.991       .  S
O2562      C2564   1.283       .  A
O2563      C2564   1.275       .  A
C2564      C3029   1.453       .  S
O2565     Zr2566   2.436       .  S
O2565      H2594   0.990       .  S
Zr2566     O2569   2.435       .  S
Zr2566     O2570   2.437       .  S
Zr2566     O2571   2.469       .  S
O2567      C2572   1.276       .  A
O2568      H2585   0.990       .  S
O2568      H2600   0.989       .  S
O2569      H2586   0.990       .  S
O2570      H2590   0.991       .  S
O2570      H2599   0.990       .  S
O2571      C2572   1.289       .  A
C2572      C3061   1.493       .  S
O2573      H2592   0.990       .  S
O2573      H2596   0.991       .  S
O2574      H2588   0.990       .  S
O2574      H2595   0.990       .  S
O2575      C2579   1.264       .  A
O2576      C2579   1.274       .  A
O2577      H2587   0.990       .  S
O2578      H2591   0.991       .  S
C2579      C3125   1.451       .  S
C2602      C2604   1.540       .  S
C2602      C2606   1.531       .  S
C2602      C2605   1.562       .  S
C2602      C3026   1.526       .  S
C2603      C2607   1.526       .  S
C2603      C2609   1.542       .  S
C2603      C2608   1.590       .  S
C2603      C3042   1.527       .  S
C2604      C2612   1.387       .  A
C2605      C2616   1.393       .  A
C2606      C2620   1.382       .  A
C2607      C2610   1.377       .  A
C2608      C2614   1.410       .  A
C2609      C2617   1.397       .  A
C2610      H2623   1.081       .  S
N2611      C2612   1.358       .  A
C2612      H2613   1.082       .  S
C2614      H2624   1.081       .  S
N2615      C2616   1.360   1_545  A
C2616      H2622   1.078       .  S
C2617      H2619   1.082       .  S
N2618      C2620   1.351       .  A
N2618      C2994   1.448       .  S
C2620      H2621   1.083       .  S
C2625      C2627   1.534       .  S
C2625      C2629   1.540       .  S
C2625      C2628   1.571       .  S
C2625      C2962   1.534       .  S
C2626      C2630   1.530       .  S
C2626      C2632   1.533       .  S
C2626      C2631   1.578       .  S
C2626      C2978   1.533       .  S
C2627      C2635   1.385       .  A
C2627      C2630   1.376       .  A
C2628      C2639   1.396       .  A
C2628      C2631   1.415       .  A
C2629      C2643   1.392       .  A
C2629      C2632   1.389       .  A
C2630      C2633   1.391       .  A
C2631      C2637   1.397       .  A
C2632      C2640   1.383       .  A
C2633      N2634   1.357       .  A
C2633      H2646   1.082       .  S
N2634      C2635   1.349       .  A
N2634      N2723   1.416       .  S
C2635      H2636   1.078       .  S
C2637      N2638   1.369       .  A
C2637      H2647   1.077       .  S
N2638      C2639   1.367       .  A
N2638      N2839   1.433       .  S
C2639      H2645   1.081       .  S
C2640      N2641   1.355       .  A
C2640      H2642   1.081       .  S
N2641      C2643   1.360       .  A
C2643      H2644   1.082       .  S
Zr2648     O2649   2.435       .  S
Zr2648     O2650   2.473       .  S
Zr2648     O2651   2.468       .  S
Zr2648     O2654   2.501       .  S
Zr2648     O2656   2.393       .  S
Zr2648     O2657   2.365       .  S
Zr2648     O2659   2.427       .  S
O2649      H2705   0.990       .  S
O2649      H2713   0.990       .  S
O2650      C2670   1.294       .  A
O2651      C2672   1.293       .  A
O2652     Zr2662   2.358       .  S
O2652      C2671   1.270       .  A
O2653     Zr2661   2.429       .  S
O2654      C2671   1.297       .  A
O2655     Zr2663   2.405       .  S
O2655      C2670   1.277       .  A
O2656     Zr2663   2.385       .  S
O2657     Zr2662   2.380       .  S
O2657     Zr2663   2.353       .  S
O2657      H2692   0.962       .  S
O2658     Zr2661   2.400       .  S
O2658     Zr2678   2.392       .  S
O2658      H2695   0.965       .  S
O2659     Zr2662   2.378       .  S
Zr2660     O2685   2.430       .  S
Zr2660     O2679   2.366       .  S
Zr2660     O2687   2.451       .  S
Zr2660     O2675   2.402       .  S
Zr2660     O2666   2.376       .  S
Zr2660     O2667   2.395       .  S
Zr2660     O2668   2.382       .  S
Zr2660     O2669   2.368       .  S
Zr2661     O2680   2.437       .  S
Zr2661     O2673   2.435       .  S
Zr2661     O2674   2.451       .  S
Zr2661     O2667   2.389       .  S
Zr2661     O2668   2.387       .  S
Zr2662     O2664   2.435       .  S
Zr2662     O2686   2.436       .  S
Zr2662     O2688   2.371       .  S
Zr2663     O2689   2.437       .  S
Zr2663     O2690   2.434       .  S
Zr2663     O2665   2.437       .  S
O2664      H2701   0.990       .  S
O2665      H2696   0.990       .  S
O2665      H2710   0.990       .  S
O2667      H2693   0.965       .  S
O2668     Zr2678   2.367       .  S
O2669     Zr2678   2.334       .  S
O2669      H2694   0.964       .  S
C2670      C2930   1.503       .  S
C2671      C2965   1.467       .  S
C2672      C3090   1.490       .  S
O2673      H2709   0.990       .  S
O2674      C2676   1.290       .  A
O2675      C2676   1.279       .  A
C2676      C2946   1.486       .  S
O2677     Zr2678   2.434       .  S
O2677      H2706   0.990       .  S
Zr2678     O2681   2.434       .  S
Zr2678     O2682   2.436       .  S
Zr2678     O2683   2.489       .  S
O2679      C2684   1.272       .  A
O2680      H2697   0.990       .  S
O2680      H2712   0.990       .  S
O2681      H2698   0.990       .  S
O2682      H2702   0.990       .  S
O2682      H2711   0.989       .  S
O2683      C2684   1.295       .  A
C2684      C2981   1.485       .  S
O2685      H2704   0.989       .  S
O2685      H2708   0.988       .  S
O2686      H2700   0.989       .  S
O2686      H2707   0.990       .  S
O2687      C2691   1.294       .  A
O2689      H2699   0.990       .  S
C2691      C2914   1.478       .  S
C2714      C2716   1.546       .  S
C2714      C2718   1.542       .  S
C2714      C2717   1.539       .  S
C2714      C2949   1.531       .  S
C2715      C2719   1.536       .  S
C2715      C2721   1.556       .  S
C2715      C2720   1.570       .  S
C2715      C2933   1.544       .  S
C2716      C2724   1.388       .  A
C2716      C2719   1.381       .  A
C2717      C2728   1.374       .  A
C2717      C2720   1.404       .  A
C2718      C2732   1.387       .  A
C2718      C2721   1.397       .  A
C2719      C2722   1.380       .  A
C2720      C2726   1.407       .  A
C2721      C2729   1.388       .  A
C2722      N2723   1.359       .  A
C2722      H2735   1.080       .  S
N2723      C2724   1.355       .  A
C2724      H2725   1.080       .  S
C2726      N2727   1.368       .  A
C2726      H2736   1.081       .  S
N2727      C2728   1.354       .  A
N2727      N2750   1.425       .  S
C2728      H2734   1.080       .  S
C2729      N2730   1.362       .  A
C2729      H2731   1.082       .  S
N2730      C2732   1.356       .  A
N2730      C3109   1.449       .  S
C2732      H2733   1.078       .  S
C2737      C2739   1.538       .  S
C2737      C2741   1.539       .  S
C2737      C2740   1.570       .  S
C2737      C2882   1.538       .  S
C2738      C2742   1.531       .  S
C2738      C2744   1.532       .  S
C2738      C2743   1.554       .  S
C2738      C2901   1.541       .  S
C2739      C2747   1.387       .  A
C2739      C2742   1.388       .  A
C2740      C2751   1.400       .  A
C2740      C2743   1.407       .  A
C2741      C2755   1.387       .  A
C2741      C2744   1.394       .  A
C2742      C2745   1.381       .  A
C2743      C2749   1.377       .  A
C2744      C2752   1.378       .  A
C2745      N2746   1.350       .  A
C2745      H2758   1.081       .  S
N2746      C2747   1.352       .  A
N2746      N2835   1.411       .  S
C2747      H2748   1.081       .  S
C2749      N2750   1.361       .  A
C2749      H2759   1.077       .  S
N2750      C2751   1.364       .  A
C2751      H2757   1.080       .  S
C2752      N2753   1.357       .  A
C2752      H2754   1.081       .  S
N2753      C2755   1.358       .  A
C2755      H2756   1.082       .  S
Zr2760     O2761   2.436       .  S
Zr2760     O2762   2.459       .  S
Zr2760     O2763   2.498       .  S
Zr2760     O2766   2.479       .  S
Zr2760     O2768   2.406       .  S
Zr2760     O2769   2.389       .  S
Zr2760     O2771   2.426       .  S
O2761      H2817   0.990       .  S
O2761      H2825   0.990       .  S
O2762      C2782   1.288       .  A
O2763      C2784   1.297       .  A
O2764     Zr2774   2.376       .  S
O2764      C2783   1.272       .  A
O2765     Zr2773   2.386       .  S
O2766      C2783   1.295       .  A
O2767     Zr2775   2.403       .  S
O2767      C2782   1.277       .  A
O2768     Zr2775   2.340       .  S
O2769     Zr2774   2.379       .  S
O2769     Zr2775   2.388       .  S
O2769      H2804   0.966       .  S
O2770     Zr2773   2.424       .  S
O2770     Zr2790   2.401       .  S
O2770      H2807   0.964       .  S
O2771     Zr2774   2.389       .  S
Zr2772     O2797   2.435       .  S
Zr2772     O2791   2.436       .  S
Zr2772     O2799   2.384       .  S
Zr2772     O2787   2.399       .  S
Zr2772     O2779   2.419       .  S
Zr2772     O2780   2.352       .  S
Zr2772     O2781   2.370       .  S
Zr2772     O2778   2.263       .  S
Zr2773     O2792   2.434       .  S
Zr2773     O2785   2.437       .  S
Zr2773     O2786   2.467       .  S
Zr2773     O2779   2.387       .  S
Zr2773     O2780   2.399       .  S
Zr2774     O2776   2.437       .  S
Zr2774     O2798   2.437       .  S
Zr2774     O2800   2.413       .  S
Zr2775     O2801   2.421       .  S
Zr2775     O2802   2.434   1_565  S
Zr2775     O2777   2.436       .  S
O2776      H2813   0.990       .  S
O2777      H2808   0.990   1_565  S
O2777      H2822   0.990       .  S
O2779      H2805   0.964       .  S
O2780     Zr2790   2.403       .  S
O2781     Zr2790   2.396       .  S
O2781      H2806   0.965       .  S
C2782      C2850   1.493       .  S
C2783      C2885   1.489       .  S
C2784      C2997   1.481       .  S
O2785      H2821   0.990       .  S
O2786      C2788   1.290       .  A
O2787      C2788   1.277       .  A
C2788      C2869   1.463       .  S
O2789     Zr2790   2.433       .  S
O2789      H2818   0.990       .  S
Zr2790     O2793   2.432       .  S
Zr2790     O2794   2.441       .  S
Zr2790     O2795   2.417       .  S
O2791      C2796   1.281       .  A
O2792      H2809   0.990       .  S
O2792      H2824   0.990       .  S
O2793      H2810   0.990       .  S
O2794      H2814   0.990       .  S
O2794      H2823   0.990       .  S
O2795      C2796   1.278       .  A
C2796      C2898   1.469       .  S
O2797      H2816   0.990       .  S
O2797      H2820   0.991       .  S
O2798      H2812   0.989       .  S
O2798      H2819   0.990       .  S
O2799      C2803   1.268       .  A
O2801      H2811   0.990       .  S
C2803      C2917   1.474       .  S
C2826      C2828   1.523       .  S
C2826      C2830   1.517       .  S
C2826      C2829   1.566       .  S
C2826      C2866   1.522       .  S
C2827      C2831   1.534       .  S
C2827      C2833   1.544       .  S
C2827      C2832   1.590       .  S
C2827      C2853   1.545       .  S
C2828      C2836   1.377       .  A
C2828      C2831   1.369       .  A
C2829      C2840   1.390       .  A
C2829      C2832   1.439       .  A
C2830      C2844   1.379       .  A
C2830      C2833   1.367       .  A
C2831      C2834   1.383       .  A
C2832      C2838   1.406       .  A
C2833      C2841   1.390       .  A
C2834      N2835   1.357       .  A
C2834      H2847   1.081       .  S
N2835      C2836   1.355       .  A
C2836      H2837   1.081       .  S
C2838      N2839   1.368       .  A
C2838      H2848   1.080       .  S
N2839      C2840   1.361       .  A
C2840      H2846   1.080       .  S
C2841      N2842   1.362       .  A
C2841      H2843   1.081       .  S
N2842      C2844   1.350       .  A
N2842      C3013   1.443       .  S
C2844      H2845   1.083       .  S
C2849      C2850   1.417       .  A
C2849      C2854   1.412       .  A
C2849      H2856   1.083       .  S
C2850      C2851   1.407       .  A
C2851      C2858   1.510       .  S
C2851      C2852   1.397       .  A
C2852      C2853   1.423       .  A
C2852      H2857   1.084       .  S
C2853      C2854   1.410       .  A
C2854      C2855   1.501       .  S
C2855      H2859   1.111       .  S
C2855      H2860   1.103       .  S
C2855      H2861   1.110       .  S
C2858      H2862   1.110       .  S
C2858      H2863   1.109       .  S
C2858      H2864   1.111       .  S
C2865      C2866   1.399       .  A
C2865      C2870   1.404       .  A
C2865      H2872   1.082       .  S
C2866      C2867   1.443       .  A
C2867      C2874   1.519       .  S
C2867      C2868   1.389       .  A
C2868      C2869   1.382       .  A
C2868      H2873   1.086       .  S
C2869      C2870   1.415       .  A
C2870      C2871   1.500       .  S
C2871      H2875   1.111       .  S
C2871      H2876   1.109       .  S
C2871      H2877   1.104       .  S
C2874      H2878   1.111       .  S
C2874      H2879   1.100       .  S
C2874      H2880   1.111       .  S
C2881      C2882   1.402       .  A
C2881      C2886   1.399       .  A
C2881      H2888   1.073       .  S
C2882      C2883   1.438       .  A
C2883      C2890   1.511       .  S
C2883      C2884   1.407       .  A
C2884      C2885   1.394       .  A
C2884      H2889   1.084       .  S
C2885      C2886   1.422       .  A
C2886      C2887   1.509       .  S
C2887      H2891   1.111       .  S
C2887      H2892   1.107       .  S
C2887      H2893   1.110       .  S
C2890      H2894   1.105       .  S
C2890      H2895   1.109       .  S
C2890      H2896   1.111       .  S
C2897      C2898   1.404       .  A
C2897      C2902   1.411       .  A
C2897      H2904   1.084       .  S
C2898      C2899   1.403       .  A
C2899      C2906   1.509       .  S
C2899      C2900   1.396       .  A
C2900      C2901   1.414       .  A
C2900      H2905   1.083       .  S
C2901      C2902   1.420       .  A
C2902      C2903   1.505       .  S
C2903      H2907   1.110       .  S
C2903      H2908   1.107       .  S
C2903      H2909   1.110       .  S
C2906      H2910   1.110       .  S
C2906      H2911   1.111       .  S
C2906      H2912   1.111       .  S
C2913      C2914   1.395       .  A
C2913      C2918   1.406       .  A
C2913      H2920   1.080       .  S
C2914      C2915   1.396       .  A
C2915      C2922   1.502       .  S
C2915      C2916   1.399       .  A
C2916      C2917   1.413       .  A
C2916      H2921   1.079       .  S
C2917      C2918   1.432       .  A
C2918      C2919   1.502       .  S
C2919      H2923   1.105       .  S
C2919      H2924   1.109       .  S
C2919      H2925   1.107       .  S
C2922      H2926   1.111       .  S
C2922      H2928   1.110       .  S
C2929      C2930   1.400       .  A
C2929      C2934   1.405       .  A
C2929      H2936   1.084       .  S
C2930      C2931   1.427       .  A
C2931      C2938   1.509       .  S
C2931      C2932   1.409       .  A
C2932      C2933   1.402       .  A
C2932      H2937   1.079       .  S
C2933      C2934   1.432       .  A
C2934      C2935   1.511       .  S
C2935      H2939   1.110       .  S
C2935      H2940   1.110       .  S
C2935      H2941   1.102       .  S
C2938      H2942   1.108       .  S
C2938      H2943   1.110       .  S
C2938      H2944   1.111       .  S
C2945      C2946   1.409       .  A
C2945      C2950   1.404       .  A
C2945      H2952   1.084       .  S
C2946      C2947   1.424       .  A
C2947      C2954   1.512       .  S
C2947      C2948   1.396       .  A
C2948      C2949   1.403       .  A
C2948      H2953   1.084       .  S
C2949      C2950   1.410       .  A
C2950      C2951   1.505       .  S
C2951      H2955   1.109       .  S
C2951      H2956   1.110       .  S
C2951      H2957   1.109       .  S
C2954      H2958   1.109       .  S
C2954      H2959   1.110       .  S
C2954      H2960   1.111       .  S
C2961      C2962   1.407       .  A
C2961      C2966   1.402       .  A
C2961      H2968   1.080       .  S
C2962      C2963   1.442       .  A
C2963      C2970   1.512       .  S
C2963      C2964   1.406       .  A
C2964      C2965   1.388       .  A
C2964      H2969   1.084       .  S
C2965      C2966   1.414       .  A
C2966      C2967   1.508       .  S
C2967      H2971   1.111       .  S
C2967      H2972   1.103       .  S
C2967      H2973   1.111       .  S
C2970      H2974   1.109       .  S
C2970      H2975   1.105       .  S
C2970      H2976   1.111       .  S
C2977      C2978   1.393       .  A
C2977      C2982   1.400       .  A
C2977      H2984   1.073       .  S
C2978      C2979   1.440       .  A
C2979      C2986   1.516       .  S
C2979      C2980   1.403       .  A
C2980      C2981   1.391       .  A
C2980      H2985   1.084       .  S
C2981      C2982   1.422       .  A
C2982      C2983   1.500       .  S
C2983      H2987   1.110       .  S
C2983      H2988   1.109       .  S
C2983      H2989   1.107       .  S
C2986      H2990   1.106       .  S
C2986      H2991   1.107       .  S
C2986      H2992   1.111       .  S
C2993      C2994   1.404       .  A
C2993      C2998   1.413       .  A
C2993      H3000   1.083       .  S
C2995      C3002   1.507       .  S
C2995      C2996   1.411       .  A
C2996      H3001   1.084       .  S
C2997      C2998   1.415       .  A
C2998      C2999   1.506       .  S
C2999      H3003   1.111   1_565  S
C2999      H3004   1.110   1_565  S
C2999      H3005   1.111       .  S
C3002      H3006   1.111       .  S
C3002      H3007   1.107       .  S
C3002      H3008   1.111       .  S
C3009      C3010   1.410       .  A
C3009      C3014   1.402       .  A
C3009      H3016   1.084       .  S
C3010      C3011   1.415       .  A
C3011      C3018   1.504       .  S
C3011      C3012   1.413       .  A
C3012      C3013   1.407       .  A
C3012      H3017   1.083       .  S
C3013      C3014   1.411       .  A
C3014      C3015   1.508       .  S
C3015      H3019   1.110       .  S
C3015      H3020   1.108       .  S
C3015      H3021   1.110       .  S
C3018      H3022   1.110       .  S
C3018      H3023   1.109       .  S
C3018      H3024   1.111       .  S
C3025      C3026   1.418       .  A
C3025      C3030   1.379       .  A
C3025      H3032   1.084       .  S
C3026      C3027   1.412       .  A
C3027      C3034   1.501       .  S
C3027      C3028   1.407       .  A
C3028      C3029   1.408       .  A
C3028      H3033   1.084       .  S
C3029      C3030   1.398       .  A
C3030      C3031   1.511       .  S
C3031      H3035   1.111       .  S
C3031      H3036   1.110       .  S
C3031      H3037   1.110       .  S
C3034      H3038   1.110       .  S
C3034      H3039   1.105       .  S
C3034      H3040   1.111       .  S
C3041      C3042   1.394       .  A
C3041      C3046   1.405       .  A
C3041      H3048   1.081       .  S
C3042      C3043   1.437       .  A
C3043      C3050   1.516       .  S
C3043      C3044   1.398       .  A
C3044      C3045   1.394       .  A
C3044      H3049   1.085       .  S
C3045      C3046   1.435       .  A
C3046      C3047   1.511       .  S
C3047      H3051   1.111       .  S
C3047      H3052   1.109       .  S
C3047      H3053   1.110       .  S
C3050      H3054   1.111       .  S
C3050      H3055   1.101       .  S
C3050      H3056   1.111       .  S
C3057      C3058   1.424       .  A
C3057      C3062   1.406       .  A
C3057      H3064   1.077       .  S
C3058      C3059   1.425       .  A
C3059      C3066   1.508       .  S
C3059      C3060   1.403       .  A
C3060      C3061   1.407       .  A
C3060      H3065   1.085       .  S
C3061      C3062   1.406       .  A
C3062      C3063   1.508       .  S
C3063      H3067   1.111       .  S
C3063      H3068   1.110       .  S
C3063      H3069   1.110       .  S
C3066      H3070   1.108   1_455  S
C3066      H3071   1.100       .  S
C3066      H3072   1.111       .  S
C3073      C3074   1.416       .  A
C3073      C3078   1.404       .  A
C3073      H3080   1.084       .  S
C3074      C3075   1.412       .  A
C3075      C3082   1.508       .  S
C3075      C3076   1.401       .  A
C3076      C3077   1.417       .  A
C3076      H3081   1.084       .  S
C3077      C3078   1.409       .  A
C3078      C3079   1.503   1_455  S
C3079      H3083   1.111       .  S
C3079      H3084   1.110       .  S
C3079      H3085   1.106       .  S
C3082      H3086   1.110       .  S
C3082      H3087   1.110       .  S
C3082      H3088   1.111       .  S
C3089      C3094   1.404       .  A
C3089      H3096   1.084       .  S
C3090      C3091   1.419       .  A
C3091      C3098   1.505       .  S
C3091      C3092   1.411       .  A
C3092      C3093   1.402   1_565  A
C3092      H3097   1.084       .  S
C3094      C3095   1.502       .  S
C3095      H3099   1.111       .  S
C3095      H3100   1.105       .  S
C3095      H3101   1.111       .  S
C3098      H3102   1.110       .  S
C3098      H3103   1.109       .  S
C3098      H3104   1.111       .  S
C3105      C3106   1.409       .  A
C3105      C3110   1.406       .  A
C3105      H3112   1.084       .  S
C3106      C3107   1.418       .  A
C3107      C3114   1.505       .  S
C3107      C3108   1.418       .  A
C3108      C3109   1.408       .  A
C3108      H3113   1.083       .  S
C3109      C3110   1.409       .  A
C3110      C3111   1.503       .  S
C3111      H3115   1.111       .  S
C3111      H3116   1.106       .  S
C3111      H3117   1.110       .  S
C3114      H3118   1.111       .  S
C3114      H3119   1.110       .  S
C3114      H3120   1.111       .  S
C3121      C3122   1.405       .  A
C3121      C3126   1.387       .  A
C3121      H3128   1.066       .  S
C3122      C3123   1.399   1_655  A
C3123      C3130   1.507       .  S
C3123      C3124   1.391       .  A
C3124      C3125   1.407       .  A
C3124      H3129   1.077       .  S
C3125      C3126   1.405   1_455  A
C3126      C3127   1.510       .  S
C3127      H3131   1.111       .  S
C3127      H3132   1.107       .  S
C3127      H3133   1.111       .  S
C3130      H3134   1.110       .  S
C3130      H3135   1.108       .  S
C3130      H3136   1.108       .  S
C3137      C3138   1.399       .  A
C3137      C3142   1.398       .  A
C3137      H3144   1.085       .  S
C3138      C3139   1.425       .  A
C3139      C3146   1.507       .  S
C3139      C3140   1.415       .  A
C3140      C3141   1.405       .  A
C3140      H3145   1.074       .  S
C3141      C3142   1.435       .  A
C3142      C3143   1.514       .  S
C3143      H3147   1.109       .  S
C3143      H3148   1.111       .  S
C3143      H3149   1.100       .  S
C3146      H3150   1.110       .  S
C3146      H3151   1.110       .  S
C3146      H3152   1.111       .  S
C3153      C3154   1.405       .  A
C3153      C3158   1.398       .  A
C3153      H3160   1.085       .  S
C3154      C3155   1.408       .  A
C3155      C3162   1.509       .  S
C3155      C3156   1.401       .  A
C3156      C3157   1.418       .  A
C3156      H3161   1.077       .  S
C3157      C3158   1.424       .  A
C3158      C3159   1.510       .  S
C3159      H3163   1.112       .  S
C3159      H3164   1.102       .  S
C3159      H3165   1.106       .  S
C3162      H3166   1.110       .  S
C3162      H3167   1.110       .  S
C3162      H3168   1.111       .  S
C3169      C3170   1.392       .  A
C3169      C3174   1.410       .  A
C3169      H3176   1.084       .  S
C3170      C3171   1.422       .  A
C3171      C3178   1.507       .  S
C3171      C3172   1.414       .  A
C3172      C3173   1.406       .  A
C3172      H3177   1.078       .  S
C3173      C3174   1.445       .  A
C3174      C3175   1.515       .  S
C3175      H3179   1.111       .  S
C3175      H3180   1.105       .  S
C3175      H3181   1.107       .  S
C3178      H3182   1.110       .  S
C3178      H3183   1.105       .  S
C3178      H3184   1.111       .  S
C3185      C3186   1.426       .  A
C3185      C3190   1.403       .  A
C3185      H3192   1.084       .  S
C3186      C3187   1.417       .  A
C3187      C3194   1.497   1_655  S
C3187      C3188   1.419       .  A
C3188      C3189   1.411       .  A
C3188      H3193   1.081       .  S
C3189      C3190   1.401       .  A
C3190      C3191   1.508       .  S
C3191      H3195   1.111       .  S
C3191      H3196   1.110       .  S
C3191      H3197   1.111       .  S
C3194      H3198   1.106       .  S
C3194      H3199   1.110       .  S
C3194      H3200   1.111       .  S
